Clear

new Circuit.psu_13_node_feeder_7
~ basekv=4.16 pu=1.00 phases=3 bus1=N650
~ Angle=30
~ MVAsc3=20000 MVASC1=21000

set earthmodel=carson // gridLAB-D compatibility

New Transformer.trans_N650-N630 phases=3 windings=2 conns=(wye, wye)
~ wdg=1 bus=N650 kV=4.16
~ wdg=2 bus=N630 kV=2.4
New RegControl.N650-N630 transformer=trans_N650-N630 winding=2 vreg=120 band=2 ptratio=20 ctprim=700 R=3 X=7.5

New Transformer.T633-634 phases=3 windings=2
~ wdg=1 conn=wye kV=2.4 kva=10000.0 %R=0.0055 bus=N633
~ wdg=2 conn=wye kV=0.48 kva=1000.0 %R=0.0055 bus=N634 XHL=0.02

New Transformer.xfmr_652_A_1 phases=1 windings=3
~ wdg=1 bus=xfmr_meter_652_A_1.1 Kv=2.4 kva=10000.0 %r=0.003
~ wdg=2 bus=trip_node_652_A_1.1.0 Kv=0.12 kva=1000.0 %r=0.006
~ wdg=3 bus=trip_node_652_A_1.0.2 Kv=0.12 kva=1000.0 %r=0.006 Xhl=2.04  Xht=2.04  Xlt=1.36

New Transformer.xfmr_652_A_2 phases=1 windings=3
~ wdg=1 bus=xfmr_meter_652_A_2.1 Kv=2.4 kva=10000.0 %r=0.003
~ wdg=2 bus=trip_node_652_A_2.1.0 Kv=0.12 kva=1000.0 %r=0.006
~ wdg=3 bus=trip_node_652_A_2.0.2 Kv=0.12 kva=1000.0 %r=0.006 Xhl=2.04  Xht=2.04  Xlt=1.36

New Transformer.xfmr_652_A_3 phases=1 windings=3
~ wdg=1 bus=xfmr_meter_652_A_3.1 Kv=2.4 kva=10000.0 %r=0.003
~ wdg=2 bus=trip_node_652_A_3.1.0 Kv=0.12 kva=1000.0 %r=0.006
~ wdg=3 bus=trip_node_652_A_3.0.2 Kv=0.12 kva=1000.0 %r=0.006 Xhl=2.04  Xht=2.04  Xlt=1.36

New Transformer.xfmr_652_A_4 phases=1 windings=3
~ wdg=1 bus=xfmr_meter_652_A_4.1 Kv=2.4 kva=10000.0 %r=0.003
~ wdg=2 bus=trip_node_652_A_4.1.0 Kv=0.12 kva=1000.0 %r=0.006
~ wdg=3 bus=trip_node_652_A_4.0.2 Kv=0.12 kva=1000.0 %r=0.006 Xhl=2.04  Xht=2.04  Xlt=1.36

New Transformer.xfmr_652_A_5 phases=1 windings=3
~ wdg=1 bus=xfmr_meter_652_A_5.1 Kv=2.4 kva=10000.0 %r=0.003
~ wdg=2 bus=trip_node_652_A_5.1.0 Kv=0.12 kva=1000.0 %r=0.006
~ wdg=3 bus=trip_node_652_A_5.0.2 Kv=0.12 kva=1000.0 %r=0.006 Xhl=2.04  Xht=2.04  Xlt=1.36

New Transformer.xfmr_611_C_1 phases=1 windings=3
~ wdg=1 bus=xfmr_meter_611_C_1.3 Kv=2.4 kva=10000.0 %r=0.003
~ wdg=2 bus=trip_node_611_C_1.1.0 Kv=0.12 kva=1000.0 %r=0.006
~ wdg=3 bus=trip_node_611_C_1.0.2 Kv=0.12 kva=1000.0 %r=0.006 Xhl=2.04  Xht=2.04  Xlt=1.36

New Transformer.xfmr_611_C_2 phases=1 windings=3
~ wdg=1 bus=xfmr_meter_611_C_2.3 Kv=2.4 kva=10000.0 %r=0.003
~ wdg=2 bus=trip_node_611_C_2.1.0 Kv=0.12 kva=1000.0 %r=0.006
~ wdg=3 bus=trip_node_611_C_2.0.2 Kv=0.12 kva=1000.0 %r=0.006 Xhl=2.04  Xht=2.04  Xlt=1.36

New Transformer.xfmr_611_C_3 phases=1 windings=3
~ wdg=1 bus=xfmr_meter_611_C_3.3 Kv=2.4 kva=10000.0 %r=0.003
~ wdg=2 bus=trip_node_611_C_3.1.0 Kv=0.12 kva=1000.0 %r=0.006
~ wdg=3 bus=trip_node_611_C_3.0.2 Kv=0.12 kva=1000.0 %r=0.006 Xhl=2.04  Xht=2.04  Xlt=1.36

New Transformer.xfmr_611_C_4 phases=1 windings=3
~ wdg=1 bus=xfmr_meter_611_C_4.3 Kv=2.4 kva=10000.0 %r=0.003
~ wdg=2 bus=trip_node_611_C_4.1.0 Kv=0.12 kva=1000.0 %r=0.006
~ wdg=3 bus=trip_node_611_C_4.0.2 Kv=0.12 kva=1000.0 %r=0.006 Xhl=2.04  Xht=2.04  Xlt=1.36

New Transformer.xfmr_611_C_5 phases=1 windings=3
~ wdg=1 bus=xfmr_meter_611_C_5.3 Kv=2.4 kva=10000.0 %r=0.003
~ wdg=2 bus=trip_node_611_C_5.1.0 Kv=0.12 kva=1000.0 %r=0.006
~ wdg=3 bus=trip_node_611_C_5.0.2 Kv=0.12 kva=1000.0 %r=0.006 Xhl=2.04  Xht=2.04  Xlt=1.36

New Transformer.xfmr_684_C_1 phases=1 windings=3
~ wdg=1 bus=xfmr_meter_684_C_1.3 Kv=2.4 kva=10000.0 %r=0.003
~ wdg=2 bus=trip_node_684_C_1.1.0 Kv=0.12 kva=1000.0 %r=0.006
~ wdg=3 bus=trip_node_684_C_1.0.2 Kv=0.12 kva=1000.0 %r=0.006 Xhl=2.04  Xht=2.04  Xlt=1.36

New Transformer.xfmr_684_C_2 phases=1 windings=3
~ wdg=1 bus=xfmr_meter_684_C_2.3 Kv=2.4 kva=10000.0 %r=0.003
~ wdg=2 bus=trip_node_684_C_2.1.0 Kv=0.12 kva=1000.0 %r=0.006
~ wdg=3 bus=trip_node_684_C_2.0.2 Kv=0.12 kva=1000.0 %r=0.006 Xhl=2.04  Xht=2.04  Xlt=1.36

New Transformer.xfmr_684_C_3 phases=1 windings=3
~ wdg=1 bus=xfmr_meter_684_C_3.3 Kv=2.4 kva=10000.0 %r=0.003
~ wdg=2 bus=trip_node_684_C_3.1.0 Kv=0.12 kva=1000.0 %r=0.006
~ wdg=3 bus=trip_node_684_C_3.0.2 Kv=0.12 kva=1000.0 %r=0.006 Xhl=2.04  Xht=2.04  Xlt=1.36

New Transformer.xfmr_684_C_4 phases=1 windings=3
~ wdg=1 bus=xfmr_meter_684_C_4.3 Kv=2.4 kva=10000.0 %r=0.003
~ wdg=2 bus=trip_node_684_C_4.1.0 Kv=0.12 kva=1000.0 %r=0.006
~ wdg=3 bus=trip_node_684_C_4.0.2 Kv=0.12 kva=1000.0 %r=0.006 Xhl=2.04  Xht=2.04  Xlt=1.36

New Transformer.xfmr_684_C_5 phases=1 windings=3
~ wdg=1 bus=xfmr_meter_684_C_5.3 Kv=2.4 kva=10000.0 %r=0.003
~ wdg=2 bus=trip_node_684_C_5.1.0 Kv=0.12 kva=1000.0 %r=0.006
~ wdg=3 bus=trip_node_684_C_5.0.2 Kv=0.12 kva=1000.0 %r=0.006 Xhl=2.04  Xht=2.04  Xlt=1.36

New Transformer.xfmr_684_A_1 phases=1 windings=3
~ wdg=1 bus=xfmr_meter_684_A_1.1 Kv=2.4 kva=10000.0 %r=0.003
~ wdg=2 bus=trip_node_684_A_1.1.0 Kv=0.12 kva=1000.0 %r=0.006
~ wdg=3 bus=trip_node_684_A_1.0.2 Kv=0.12 kva=1000.0 %r=0.006 Xhl=2.04  Xht=2.04  Xlt=1.36

New Transformer.xfmr_684_A_2 phases=1 windings=3
~ wdg=1 bus=xfmr_meter_684_A_2.1 Kv=2.4 kva=10000.0 %r=0.003
~ wdg=2 bus=trip_node_684_A_2.1.0 Kv=0.12 kva=1000.0 %r=0.006
~ wdg=3 bus=trip_node_684_A_2.0.2 Kv=0.12 kva=1000.0 %r=0.006 Xhl=2.04  Xht=2.04  Xlt=1.36

New Transformer.xfmr_684_A_3 phases=1 windings=3
~ wdg=1 bus=xfmr_meter_684_A_3.1 Kv=2.4 kva=10000.0 %r=0.003
~ wdg=2 bus=trip_node_684_A_3.1.0 Kv=0.12 kva=1000.0 %r=0.006
~ wdg=3 bus=trip_node_684_A_3.0.2 Kv=0.12 kva=1000.0 %r=0.006 Xhl=2.04  Xht=2.04  Xlt=1.36

New Transformer.xfmr_684_A_4 phases=1 windings=3
~ wdg=1 bus=xfmr_meter_684_A_4.1 Kv=2.4 kva=10000.0 %r=0.003
~ wdg=2 bus=trip_node_684_A_4.1.0 Kv=0.12 kva=1000.0 %r=0.006
~ wdg=3 bus=trip_node_684_A_4.0.2 Kv=0.12 kva=1000.0 %r=0.006 Xhl=2.04  Xht=2.04  Xlt=1.36

New Transformer.xfmr_684_A_5 phases=1 windings=3
~ wdg=1 bus=xfmr_meter_684_A_5.1 Kv=2.4 kva=10000.0 %r=0.003
~ wdg=2 bus=trip_node_684_A_5.1.0 Kv=0.12 kva=1000.0 %r=0.006
~ wdg=3 bus=trip_node_684_A_5.0.2 Kv=0.12 kva=1000.0 %r=0.006 Xhl=2.04  Xht=2.04  Xlt=1.36

New Transformer.xfmr_645_B_1 phases=1 windings=3
~ wdg=1 bus=xfmr_meter_645_B_1.2 Kv=2.4 kva=10000.0 %r=0.003
~ wdg=2 bus=trip_node_645_B_1.1.0 Kv=0.12 kva=1000.0 %r=0.006
~ wdg=3 bus=trip_node_645_B_1.0.2 Kv=0.12 kva=1000.0 %r=0.006 Xhl=2.04  Xht=2.04  Xlt=1.36

New Transformer.xfmr_645_B_2 phases=1 windings=3
~ wdg=1 bus=xfmr_meter_645_B_2.2 Kv=2.4 kva=10000.0 %r=0.003
~ wdg=2 bus=trip_node_645_B_2.1.0 Kv=0.12 kva=1000.0 %r=0.006
~ wdg=3 bus=trip_node_645_B_2.0.2 Kv=0.12 kva=1000.0 %r=0.006 Xhl=2.04  Xht=2.04  Xlt=1.36

New Transformer.xfmr_645_B_3 phases=1 windings=3
~ wdg=1 bus=xfmr_meter_645_B_3.2 Kv=2.4 kva=10000.0 %r=0.003
~ wdg=2 bus=trip_node_645_B_3.1.0 Kv=0.12 kva=1000.0 %r=0.006
~ wdg=3 bus=trip_node_645_B_3.0.2 Kv=0.12 kva=1000.0 %r=0.006 Xhl=2.04  Xht=2.04  Xlt=1.36

New Transformer.xfmr_645_B_4 phases=1 windings=3
~ wdg=1 bus=xfmr_meter_645_B_4.2 Kv=2.4 kva=10000.0 %r=0.003
~ wdg=2 bus=trip_node_645_B_4.1.0 Kv=0.12 kva=1000.0 %r=0.006
~ wdg=3 bus=trip_node_645_B_4.0.2 Kv=0.12 kva=1000.0 %r=0.006 Xhl=2.04  Xht=2.04  Xlt=1.36

New Transformer.xfmr_645_B_5 phases=1 windings=3
~ wdg=1 bus=xfmr_meter_645_B_5.2 Kv=2.4 kva=10000.0 %r=0.003
~ wdg=2 bus=trip_node_645_B_5.1.0 Kv=0.12 kva=1000.0 %r=0.006
~ wdg=3 bus=trip_node_645_B_5.0.2 Kv=0.12 kva=1000.0 %r=0.006 Xhl=2.04  Xht=2.04  Xlt=1.36

New Transformer.xfmr_645_C_1 phases=1 windings=3
~ wdg=1 bus=xfmr_meter_645_C_1.3 Kv=2.4 kva=10000.0 %r=0.003
~ wdg=2 bus=trip_node_645_C_1.1.0 Kv=0.12 kva=1000.0 %r=0.006
~ wdg=3 bus=trip_node_645_C_1.0.2 Kv=0.12 kva=1000.0 %r=0.006 Xhl=2.04  Xht=2.04  Xlt=1.36

New Transformer.xfmr_645_C_2 phases=1 windings=3
~ wdg=1 bus=xfmr_meter_645_C_2.3 Kv=2.4 kva=10000.0 %r=0.003
~ wdg=2 bus=trip_node_645_C_2.1.0 Kv=0.12 kva=1000.0 %r=0.006
~ wdg=3 bus=trip_node_645_C_2.0.2 Kv=0.12 kva=1000.0 %r=0.006 Xhl=2.04  Xht=2.04  Xlt=1.36

New Transformer.xfmr_645_C_3 phases=1 windings=3
~ wdg=1 bus=xfmr_meter_645_C_3.3 Kv=2.4 kva=10000.0 %r=0.003
~ wdg=2 bus=trip_node_645_C_3.1.0 Kv=0.12 kva=1000.0 %r=0.006
~ wdg=3 bus=trip_node_645_C_3.0.2 Kv=0.12 kva=1000.0 %r=0.006 Xhl=2.04  Xht=2.04  Xlt=1.36

New Transformer.xfmr_645_C_4 phases=1 windings=3
~ wdg=1 bus=xfmr_meter_645_C_4.3 Kv=2.4 kva=10000.0 %r=0.003
~ wdg=2 bus=trip_node_645_C_4.1.0 Kv=0.12 kva=1000.0 %r=0.006
~ wdg=3 bus=trip_node_645_C_4.0.2 Kv=0.12 kva=1000.0 %r=0.006 Xhl=2.04  Xht=2.04  Xlt=1.36

New Transformer.xfmr_645_C_5 phases=1 windings=3
~ wdg=1 bus=xfmr_meter_645_C_5.3 Kv=2.4 kva=10000.0 %r=0.003
~ wdg=2 bus=trip_node_645_C_5.1.0 Kv=0.12 kva=1000.0 %r=0.006
~ wdg=3 bus=trip_node_645_C_5.0.2 Kv=0.12 kva=1000.0 %r=0.006 Xhl=2.04  Xht=2.04  Xlt=1.36

New Transformer.xfmr_633_A_1 phases=1 windings=3
~ wdg=1 bus=xfmr_meter_633_A_1.1 Kv=2.4 kva=10000.0 %r=0.003
~ wdg=2 bus=trip_node_633_A_1.1.0 Kv=0.12 kva=1000.0 %r=0.006
~ wdg=3 bus=trip_node_633_A_1.0.2 Kv=0.12 kva=1000.0 %r=0.006 Xhl=2.04  Xht=2.04  Xlt=1.36

New Transformer.xfmr_633_A_2 phases=1 windings=3
~ wdg=1 bus=xfmr_meter_633_A_2.1 Kv=2.4 kva=10000.0 %r=0.003
~ wdg=2 bus=trip_node_633_A_2.1.0 Kv=0.12 kva=1000.0 %r=0.006
~ wdg=3 bus=trip_node_633_A_2.0.2 Kv=0.12 kva=1000.0 %r=0.006 Xhl=2.04  Xht=2.04  Xlt=1.36

New Transformer.xfmr_633_A_3 phases=1 windings=3
~ wdg=1 bus=xfmr_meter_633_A_3.1 Kv=2.4 kva=10000.0 %r=0.003
~ wdg=2 bus=trip_node_633_A_3.1.0 Kv=0.12 kva=1000.0 %r=0.006
~ wdg=3 bus=trip_node_633_A_3.0.2 Kv=0.12 kva=1000.0 %r=0.006 Xhl=2.04  Xht=2.04  Xlt=1.36

New Transformer.xfmr_633_A_4 phases=1 windings=3
~ wdg=1 bus=xfmr_meter_633_A_4.1 Kv=2.4 kva=10000.0 %r=0.003
~ wdg=2 bus=trip_node_633_A_4.1.0 Kv=0.12 kva=1000.0 %r=0.006
~ wdg=3 bus=trip_node_633_A_4.0.2 Kv=0.12 kva=1000.0 %r=0.006 Xhl=2.04  Xht=2.04  Xlt=1.36

New Transformer.xfmr_633_A_5 phases=1 windings=3
~ wdg=1 bus=xfmr_meter_633_A_5.1 Kv=2.4 kva=10000.0 %r=0.003
~ wdg=2 bus=trip_node_633_A_5.1.0 Kv=0.12 kva=1000.0 %r=0.006
~ wdg=3 bus=trip_node_633_A_5.0.2 Kv=0.12 kva=1000.0 %r=0.006 Xhl=2.04  Xht=2.04  Xlt=1.36

New Transformer.xfmr_633_B_1 phases=1 windings=3
~ wdg=1 bus=xfmr_meter_633_B_1.2 Kv=2.4 kva=10000.0 %r=0.003
~ wdg=2 bus=trip_node_633_B_1.1.0 Kv=0.12 kva=1000.0 %r=0.006
~ wdg=3 bus=trip_node_633_B_1.0.2 Kv=0.12 kva=1000.0 %r=0.006 Xhl=2.04  Xht=2.04  Xlt=1.36

New Transformer.xfmr_633_B_2 phases=1 windings=3
~ wdg=1 bus=xfmr_meter_633_B_2.2 Kv=2.4 kva=10000.0 %r=0.003
~ wdg=2 bus=trip_node_633_B_2.1.0 Kv=0.12 kva=1000.0 %r=0.006
~ wdg=3 bus=trip_node_633_B_2.0.2 Kv=0.12 kva=1000.0 %r=0.006 Xhl=2.04  Xht=2.04  Xlt=1.36

New Transformer.xfmr_633_B_3 phases=1 windings=3
~ wdg=1 bus=xfmr_meter_633_B_3.2 Kv=2.4 kva=10000.0 %r=0.003
~ wdg=2 bus=trip_node_633_B_3.1.0 Kv=0.12 kva=1000.0 %r=0.006
~ wdg=3 bus=trip_node_633_B_3.0.2 Kv=0.12 kva=1000.0 %r=0.006 Xhl=2.04  Xht=2.04  Xlt=1.36

New Transformer.xfmr_633_B_4 phases=1 windings=3
~ wdg=1 bus=xfmr_meter_633_B_4.2 Kv=2.4 kva=10000.0 %r=0.003
~ wdg=2 bus=trip_node_633_B_4.1.0 Kv=0.12 kva=1000.0 %r=0.006
~ wdg=3 bus=trip_node_633_B_4.0.2 Kv=0.12 kva=1000.0 %r=0.006 Xhl=2.04  Xht=2.04  Xlt=1.36

New Transformer.xfmr_633_B_5 phases=1 windings=3
~ wdg=1 bus=xfmr_meter_633_B_5.2 Kv=2.4 kva=10000.0 %r=0.003
~ wdg=2 bus=trip_node_633_B_5.1.0 Kv=0.12 kva=1000.0 %r=0.006
~ wdg=3 bus=trip_node_633_B_5.0.2 Kv=0.12 kva=1000.0 %r=0.006 Xhl=2.04  Xht=2.04  Xlt=1.36

New Transformer.xfmr_633_C_1 phases=1 windings=3
~ wdg=1 bus=xfmr_meter_633_C_1.3 Kv=2.4 kva=10000.0 %r=0.003
~ wdg=2 bus=trip_node_633_C_1.1.0 Kv=0.12 kva=1000.0 %r=0.006
~ wdg=3 bus=trip_node_633_C_1.0.2 Kv=0.12 kva=1000.0 %r=0.006 Xhl=2.04  Xht=2.04  Xlt=1.36

New Transformer.xfmr_633_C_2 phases=1 windings=3
~ wdg=1 bus=xfmr_meter_633_C_2.3 Kv=2.4 kva=10000.0 %r=0.003
~ wdg=2 bus=trip_node_633_C_2.1.0 Kv=0.12 kva=1000.0 %r=0.006
~ wdg=3 bus=trip_node_633_C_2.0.2 Kv=0.12 kva=1000.0 %r=0.006 Xhl=2.04  Xht=2.04  Xlt=1.36

New Transformer.xfmr_633_C_3 phases=1 windings=3
~ wdg=1 bus=xfmr_meter_633_C_3.3 Kv=2.4 kva=10000.0 %r=0.003
~ wdg=2 bus=trip_node_633_C_3.1.0 Kv=0.12 kva=1000.0 %r=0.006
~ wdg=3 bus=trip_node_633_C_3.0.2 Kv=0.12 kva=1000.0 %r=0.006 Xhl=2.04  Xht=2.04  Xlt=1.36

New Transformer.xfmr_633_C_4 phases=1 windings=3
~ wdg=1 bus=xfmr_meter_633_C_4.3 Kv=2.4 kva=10000.0 %r=0.003
~ wdg=2 bus=trip_node_633_C_4.1.0 Kv=0.12 kva=1000.0 %r=0.006
~ wdg=3 bus=trip_node_633_C_4.0.2 Kv=0.12 kva=1000.0 %r=0.006 Xhl=2.04  Xht=2.04  Xlt=1.36

New Transformer.xfmr_633_C_5 phases=1 windings=3
~ wdg=1 bus=xfmr_meter_633_C_5.3 Kv=2.4 kva=10000.0 %r=0.003
~ wdg=2 bus=trip_node_633_C_5.1.0 Kv=0.12 kva=1000.0 %r=0.006
~ wdg=3 bus=trip_node_633_C_5.0.2 Kv=0.12 kva=1000.0 %r=0.006 Xhl=2.04  Xht=2.04  Xlt=1.36

New Transformer.xfmr_632_A_1 phases=1 windings=3
~ wdg=1 bus=xfmr_meter_632_A_1.1 Kv=2.4 kva=10000.0 %r=0.003
~ wdg=2 bus=trip_node_632_A_1.1.0 Kv=0.12 kva=1000.0 %r=0.006
~ wdg=3 bus=trip_node_632_A_1.0.2 Kv=0.12 kva=1000.0 %r=0.006 Xhl=2.04  Xht=2.04  Xlt=1.36

New Transformer.xfmr_632_A_2 phases=1 windings=3
~ wdg=1 bus=xfmr_meter_632_A_2.1 Kv=2.4 kva=10000.0 %r=0.003
~ wdg=2 bus=trip_node_632_A_2.1.0 Kv=0.12 kva=1000.0 %r=0.006
~ wdg=3 bus=trip_node_632_A_2.0.2 Kv=0.12 kva=1000.0 %r=0.006 Xhl=2.04  Xht=2.04  Xlt=1.36

New Transformer.xfmr_632_A_3 phases=1 windings=3
~ wdg=1 bus=xfmr_meter_632_A_3.1 Kv=2.4 kva=10000.0 %r=0.003
~ wdg=2 bus=trip_node_632_A_3.1.0 Kv=0.12 kva=1000.0 %r=0.006
~ wdg=3 bus=trip_node_632_A_3.0.2 Kv=0.12 kva=1000.0 %r=0.006 Xhl=2.04  Xht=2.04  Xlt=1.36

New Transformer.xfmr_632_A_4 phases=1 windings=3
~ wdg=1 bus=xfmr_meter_632_A_4.1 Kv=2.4 kva=10000.0 %r=0.003
~ wdg=2 bus=trip_node_632_A_4.1.0 Kv=0.12 kva=1000.0 %r=0.006
~ wdg=3 bus=trip_node_632_A_4.0.2 Kv=0.12 kva=1000.0 %r=0.006 Xhl=2.04  Xht=2.04  Xlt=1.36

New Transformer.xfmr_632_A_5 phases=1 windings=3
~ wdg=1 bus=xfmr_meter_632_A_5.1 Kv=2.4 kva=10000.0 %r=0.003
~ wdg=2 bus=trip_node_632_A_5.1.0 Kv=0.12 kva=1000.0 %r=0.006
~ wdg=3 bus=trip_node_632_A_5.0.2 Kv=0.12 kva=1000.0 %r=0.006 Xhl=2.04  Xht=2.04  Xlt=1.36

New Transformer.xfmr_632_B_1 phases=1 windings=3
~ wdg=1 bus=xfmr_meter_632_B_1.2 Kv=2.4 kva=10000.0 %r=0.003
~ wdg=2 bus=trip_node_632_B_1.1.0 Kv=0.12 kva=1000.0 %r=0.006
~ wdg=3 bus=trip_node_632_B_1.0.2 Kv=0.12 kva=1000.0 %r=0.006 Xhl=2.04  Xht=2.04  Xlt=1.36

New Transformer.xfmr_632_B_2 phases=1 windings=3
~ wdg=1 bus=xfmr_meter_632_B_2.2 Kv=2.4 kva=10000.0 %r=0.003
~ wdg=2 bus=trip_node_632_B_2.1.0 Kv=0.12 kva=1000.0 %r=0.006
~ wdg=3 bus=trip_node_632_B_2.0.2 Kv=0.12 kva=1000.0 %r=0.006 Xhl=2.04  Xht=2.04  Xlt=1.36

New Transformer.xfmr_632_B_3 phases=1 windings=3
~ wdg=1 bus=xfmr_meter_632_B_3.2 Kv=2.4 kva=10000.0 %r=0.003
~ wdg=2 bus=trip_node_632_B_3.1.0 Kv=0.12 kva=1000.0 %r=0.006
~ wdg=3 bus=trip_node_632_B_3.0.2 Kv=0.12 kva=1000.0 %r=0.006 Xhl=2.04  Xht=2.04  Xlt=1.36

New Transformer.xfmr_632_B_4 phases=1 windings=3
~ wdg=1 bus=xfmr_meter_632_B_4.2 Kv=2.4 kva=10000.0 %r=0.003
~ wdg=2 bus=trip_node_632_B_4.1.0 Kv=0.12 kva=1000.0 %r=0.006
~ wdg=3 bus=trip_node_632_B_4.0.2 Kv=0.12 kva=1000.0 %r=0.006 Xhl=2.04  Xht=2.04  Xlt=1.36

New Transformer.xfmr_632_B_5 phases=1 windings=3
~ wdg=1 bus=xfmr_meter_632_B_5.2 Kv=2.4 kva=10000.0 %r=0.003
~ wdg=2 bus=trip_node_632_B_5.1.0 Kv=0.12 kva=1000.0 %r=0.006
~ wdg=3 bus=trip_node_632_B_5.0.2 Kv=0.12 kva=1000.0 %r=0.006 Xhl=2.04  Xht=2.04  Xlt=1.36

New Transformer.xfmr_632_C_1 phases=1 windings=3
~ wdg=1 bus=xfmr_meter_632_C_1.3 Kv=2.4 kva=10000.0 %r=0.003
~ wdg=2 bus=trip_node_632_C_1.1.0 Kv=0.12 kva=1000.0 %r=0.006
~ wdg=3 bus=trip_node_632_C_1.0.2 Kv=0.12 kva=1000.0 %r=0.006 Xhl=2.04  Xht=2.04  Xlt=1.36

New Transformer.xfmr_632_C_2 phases=1 windings=3
~ wdg=1 bus=xfmr_meter_632_C_2.3 Kv=2.4 kva=10000.0 %r=0.003
~ wdg=2 bus=trip_node_632_C_2.1.0 Kv=0.12 kva=1000.0 %r=0.006
~ wdg=3 bus=trip_node_632_C_2.0.2 Kv=0.12 kva=1000.0 %r=0.006 Xhl=2.04  Xht=2.04  Xlt=1.36

New Transformer.xfmr_632_C_3 phases=1 windings=3
~ wdg=1 bus=xfmr_meter_632_C_3.3 Kv=2.4 kva=10000.0 %r=0.003
~ wdg=2 bus=trip_node_632_C_3.1.0 Kv=0.12 kva=1000.0 %r=0.006
~ wdg=3 bus=trip_node_632_C_3.0.2 Kv=0.12 kva=1000.0 %r=0.006 Xhl=2.04  Xht=2.04  Xlt=1.36

New Transformer.xfmr_632_C_4 phases=1 windings=3
~ wdg=1 bus=xfmr_meter_632_C_4.3 Kv=2.4 kva=10000.0 %r=0.003
~ wdg=2 bus=trip_node_632_C_4.1.0 Kv=0.12 kva=1000.0 %r=0.006
~ wdg=3 bus=trip_node_632_C_4.0.2 Kv=0.12 kva=1000.0 %r=0.006 Xhl=2.04  Xht=2.04  Xlt=1.36

New Transformer.xfmr_632_C_5 phases=1 windings=3
~ wdg=1 bus=xfmr_meter_632_C_5.3 Kv=2.4 kva=10000.0 %r=0.003
~ wdg=2 bus=trip_node_632_C_5.1.0 Kv=0.12 kva=1000.0 %r=0.006
~ wdg=3 bus=trip_node_632_C_5.0.2 Kv=0.12 kva=1000.0 %r=0.006 Xhl=2.04  Xht=2.04  Xlt=1.36

New Transformer.xfmr_692_A_1 phases=1 windings=3
~ wdg=1 bus=xfmr_meter_692_A_1.1 Kv=2.4 kva=10000.0 %r=0.003
~ wdg=2 bus=trip_node_692_A_1.1.0 Kv=0.12 kva=1000.0 %r=0.006
~ wdg=3 bus=trip_node_692_A_1.0.2 Kv=0.12 kva=1000.0 %r=0.006 Xhl=2.04  Xht=2.04  Xlt=1.36

New Transformer.xfmr_692_A_2 phases=1 windings=3
~ wdg=1 bus=xfmr_meter_692_A_2.1 Kv=2.4 kva=10000.0 %r=0.003
~ wdg=2 bus=trip_node_692_A_2.1.0 Kv=0.12 kva=1000.0 %r=0.006
~ wdg=3 bus=trip_node_692_A_2.0.2 Kv=0.12 kva=1000.0 %r=0.006 Xhl=2.04  Xht=2.04  Xlt=1.36

New Transformer.xfmr_692_A_3 phases=1 windings=3
~ wdg=1 bus=xfmr_meter_692_A_3.1 Kv=2.4 kva=10000.0 %r=0.003
~ wdg=2 bus=trip_node_692_A_3.1.0 Kv=0.12 kva=1000.0 %r=0.006
~ wdg=3 bus=trip_node_692_A_3.0.2 Kv=0.12 kva=1000.0 %r=0.006 Xhl=2.04  Xht=2.04  Xlt=1.36

New Transformer.xfmr_692_A_4 phases=1 windings=3
~ wdg=1 bus=xfmr_meter_692_A_4.1 Kv=2.4 kva=10000.0 %r=0.003
~ wdg=2 bus=trip_node_692_A_4.1.0 Kv=0.12 kva=1000.0 %r=0.006
~ wdg=3 bus=trip_node_692_A_4.0.2 Kv=0.12 kva=1000.0 %r=0.006 Xhl=2.04  Xht=2.04  Xlt=1.36

New Transformer.xfmr_692_A_5 phases=1 windings=3
~ wdg=1 bus=xfmr_meter_692_A_5.1 Kv=2.4 kva=10000.0 %r=0.003
~ wdg=2 bus=trip_node_692_A_5.1.0 Kv=0.12 kva=1000.0 %r=0.006
~ wdg=3 bus=trip_node_692_A_5.0.2 Kv=0.12 kva=1000.0 %r=0.006 Xhl=2.04  Xht=2.04  Xlt=1.36

New Transformer.xfmr_692_B_1 phases=1 windings=3
~ wdg=1 bus=xfmr_meter_692_B_1.2 Kv=2.4 kva=10000.0 %r=0.003
~ wdg=2 bus=trip_node_692_B_1.1.0 Kv=0.12 kva=1000.0 %r=0.006
~ wdg=3 bus=trip_node_692_B_1.0.2 Kv=0.12 kva=1000.0 %r=0.006 Xhl=2.04  Xht=2.04  Xlt=1.36

New Transformer.xfmr_692_B_2 phases=1 windings=3
~ wdg=1 bus=xfmr_meter_692_B_2.2 Kv=2.4 kva=10000.0 %r=0.003
~ wdg=2 bus=trip_node_692_B_2.1.0 Kv=0.12 kva=1000.0 %r=0.006
~ wdg=3 bus=trip_node_692_B_2.0.2 Kv=0.12 kva=1000.0 %r=0.006 Xhl=2.04  Xht=2.04  Xlt=1.36

New Transformer.xfmr_692_B_3 phases=1 windings=3
~ wdg=1 bus=xfmr_meter_692_B_3.2 Kv=2.4 kva=10000.0 %r=0.003
~ wdg=2 bus=trip_node_692_B_3.1.0 Kv=0.12 kva=1000.0 %r=0.006
~ wdg=3 bus=trip_node_692_B_3.0.2 Kv=0.12 kva=1000.0 %r=0.006 Xhl=2.04  Xht=2.04  Xlt=1.36

New Transformer.xfmr_692_B_4 phases=1 windings=3
~ wdg=1 bus=xfmr_meter_692_B_4.2 Kv=2.4 kva=10000.0 %r=0.003
~ wdg=2 bus=trip_node_692_B_4.1.0 Kv=0.12 kva=1000.0 %r=0.006
~ wdg=3 bus=trip_node_692_B_4.0.2 Kv=0.12 kva=1000.0 %r=0.006 Xhl=2.04  Xht=2.04  Xlt=1.36

New Transformer.xfmr_692_B_5 phases=1 windings=3
~ wdg=1 bus=xfmr_meter_692_B_5.2 Kv=2.4 kva=10000.0 %r=0.003
~ wdg=2 bus=trip_node_692_B_5.1.0 Kv=0.12 kva=1000.0 %r=0.006
~ wdg=3 bus=trip_node_692_B_5.0.2 Kv=0.12 kva=1000.0 %r=0.006 Xhl=2.04  Xht=2.04  Xlt=1.36

New Transformer.xfmr_692_C_1 phases=1 windings=3
~ wdg=1 bus=xfmr_meter_692_C_1.3 Kv=2.4 kva=10000.0 %r=0.003
~ wdg=2 bus=trip_node_692_C_1.1.0 Kv=0.12 kva=1000.0 %r=0.006
~ wdg=3 bus=trip_node_692_C_1.0.2 Kv=0.12 kva=1000.0 %r=0.006 Xhl=2.04  Xht=2.04  Xlt=1.36

New Transformer.xfmr_692_C_2 phases=1 windings=3
~ wdg=1 bus=xfmr_meter_692_C_2.3 Kv=2.4 kva=10000.0 %r=0.003
~ wdg=2 bus=trip_node_692_C_2.1.0 Kv=0.12 kva=1000.0 %r=0.006
~ wdg=3 bus=trip_node_692_C_2.0.2 Kv=0.12 kva=1000.0 %r=0.006 Xhl=2.04  Xht=2.04  Xlt=1.36

New Transformer.xfmr_692_C_3 phases=1 windings=3
~ wdg=1 bus=xfmr_meter_692_C_3.3 Kv=2.4 kva=10000.0 %r=0.003
~ wdg=2 bus=trip_node_692_C_3.1.0 Kv=0.12 kva=1000.0 %r=0.006
~ wdg=3 bus=trip_node_692_C_3.0.2 Kv=0.12 kva=1000.0 %r=0.006 Xhl=2.04  Xht=2.04  Xlt=1.36

New Transformer.xfmr_692_C_4 phases=1 windings=3
~ wdg=1 bus=xfmr_meter_692_C_4.3 Kv=2.4 kva=10000.0 %r=0.003
~ wdg=2 bus=trip_node_692_C_4.1.0 Kv=0.12 kva=1000.0 %r=0.006
~ wdg=3 bus=trip_node_692_C_4.0.2 Kv=0.12 kva=1000.0 %r=0.006 Xhl=2.04  Xht=2.04  Xlt=1.36

New Transformer.xfmr_692_C_5 phases=1 windings=3
~ wdg=1 bus=xfmr_meter_692_C_5.3 Kv=2.4 kva=10000.0 %r=0.003
~ wdg=2 bus=trip_node_692_C_5.1.0 Kv=0.12 kva=1000.0 %r=0.006
~ wdg=3 bus=trip_node_692_C_5.0.2 Kv=0.12 kva=1000.0 %r=0.006 Xhl=2.04  Xht=2.04  Xlt=1.36

New Transformer.xfmr_675_A_1 phases=1 windings=3
~ wdg=1 bus=xfmr_meter_675_A_1.1 Kv=2.4 kva=10000.0 %r=0.003
~ wdg=2 bus=trip_node_675_A_1.1.0 Kv=0.12 kva=1000.0 %r=0.006
~ wdg=3 bus=trip_node_675_A_1.0.2 Kv=0.12 kva=1000.0 %r=0.006 Xhl=2.04  Xht=2.04  Xlt=1.36

New Transformer.xfmr_675_A_2 phases=1 windings=3
~ wdg=1 bus=xfmr_meter_675_A_2.1 Kv=2.4 kva=10000.0 %r=0.003
~ wdg=2 bus=trip_node_675_A_2.1.0 Kv=0.12 kva=1000.0 %r=0.006
~ wdg=3 bus=trip_node_675_A_2.0.2 Kv=0.12 kva=1000.0 %r=0.006 Xhl=2.04  Xht=2.04  Xlt=1.36

New Transformer.xfmr_675_A_3 phases=1 windings=3
~ wdg=1 bus=xfmr_meter_675_A_3.1 Kv=2.4 kva=10000.0 %r=0.003
~ wdg=2 bus=trip_node_675_A_3.1.0 Kv=0.12 kva=1000.0 %r=0.006
~ wdg=3 bus=trip_node_675_A_3.0.2 Kv=0.12 kva=1000.0 %r=0.006 Xhl=2.04  Xht=2.04  Xlt=1.36

New Transformer.xfmr_675_A_4 phases=1 windings=3
~ wdg=1 bus=xfmr_meter_675_A_4.1 Kv=2.4 kva=10000.0 %r=0.003
~ wdg=2 bus=trip_node_675_A_4.1.0 Kv=0.12 kva=1000.0 %r=0.006
~ wdg=3 bus=trip_node_675_A_4.0.2 Kv=0.12 kva=1000.0 %r=0.006 Xhl=2.04  Xht=2.04  Xlt=1.36

New Transformer.xfmr_675_A_5 phases=1 windings=3
~ wdg=1 bus=xfmr_meter_675_A_5.1 Kv=2.4 kva=10000.0 %r=0.003
~ wdg=2 bus=trip_node_675_A_5.1.0 Kv=0.12 kva=1000.0 %r=0.006
~ wdg=3 bus=trip_node_675_A_5.0.2 Kv=0.12 kva=1000.0 %r=0.006 Xhl=2.04  Xht=2.04  Xlt=1.36

New Transformer.xfmr_675_B_1 phases=1 windings=3
~ wdg=1 bus=xfmr_meter_675_B_1.2 Kv=2.4 kva=10000.0 %r=0.003
~ wdg=2 bus=trip_node_675_B_1.1.0 Kv=0.12 kva=1000.0 %r=0.006
~ wdg=3 bus=trip_node_675_B_1.0.2 Kv=0.12 kva=1000.0 %r=0.006 Xhl=2.04  Xht=2.04  Xlt=1.36

New Transformer.xfmr_675_B_2 phases=1 windings=3
~ wdg=1 bus=xfmr_meter_675_B_2.2 Kv=2.4 kva=10000.0 %r=0.003
~ wdg=2 bus=trip_node_675_B_2.1.0 Kv=0.12 kva=1000.0 %r=0.006
~ wdg=3 bus=trip_node_675_B_2.0.2 Kv=0.12 kva=1000.0 %r=0.006 Xhl=2.04  Xht=2.04  Xlt=1.36

New Transformer.xfmr_675_B_3 phases=1 windings=3
~ wdg=1 bus=xfmr_meter_675_B_3.2 Kv=2.4 kva=10000.0 %r=0.003
~ wdg=2 bus=trip_node_675_B_3.1.0 Kv=0.12 kva=1000.0 %r=0.006
~ wdg=3 bus=trip_node_675_B_3.0.2 Kv=0.12 kva=1000.0 %r=0.006 Xhl=2.04  Xht=2.04  Xlt=1.36

New Transformer.xfmr_675_B_4 phases=1 windings=3
~ wdg=1 bus=xfmr_meter_675_B_4.2 Kv=2.4 kva=10000.0 %r=0.003
~ wdg=2 bus=trip_node_675_B_4.1.0 Kv=0.12 kva=1000.0 %r=0.006
~ wdg=3 bus=trip_node_675_B_4.0.2 Kv=0.12 kva=1000.0 %r=0.006 Xhl=2.04  Xht=2.04  Xlt=1.36

New Transformer.xfmr_675_B_5 phases=1 windings=3
~ wdg=1 bus=xfmr_meter_675_B_5.2 Kv=2.4 kva=10000.0 %r=0.003
~ wdg=2 bus=trip_node_675_B_5.1.0 Kv=0.12 kva=1000.0 %r=0.006
~ wdg=3 bus=trip_node_675_B_5.0.2 Kv=0.12 kva=1000.0 %r=0.006 Xhl=2.04  Xht=2.04  Xlt=1.36

New Transformer.xfmr_675_C_1 phases=1 windings=3
~ wdg=1 bus=xfmr_meter_675_C_1.3 Kv=2.4 kva=10000.0 %r=0.003
~ wdg=2 bus=trip_node_675_C_1.1.0 Kv=0.12 kva=1000.0 %r=0.006
~ wdg=3 bus=trip_node_675_C_1.0.2 Kv=0.12 kva=1000.0 %r=0.006 Xhl=2.04  Xht=2.04  Xlt=1.36

New Transformer.xfmr_675_C_2 phases=1 windings=3
~ wdg=1 bus=xfmr_meter_675_C_2.3 Kv=2.4 kva=10000.0 %r=0.003
~ wdg=2 bus=trip_node_675_C_2.1.0 Kv=0.12 kva=1000.0 %r=0.006
~ wdg=3 bus=trip_node_675_C_2.0.2 Kv=0.12 kva=1000.0 %r=0.006 Xhl=2.04  Xht=2.04  Xlt=1.36

New Transformer.xfmr_675_C_3 phases=1 windings=3
~ wdg=1 bus=xfmr_meter_675_C_3.3 Kv=2.4 kva=10000.0 %r=0.003
~ wdg=2 bus=trip_node_675_C_3.1.0 Kv=0.12 kva=1000.0 %r=0.006
~ wdg=3 bus=trip_node_675_C_3.0.2 Kv=0.12 kva=1000.0 %r=0.006 Xhl=2.04  Xht=2.04  Xlt=1.36

New Transformer.xfmr_675_C_4 phases=1 windings=3
~ wdg=1 bus=xfmr_meter_675_C_4.3 Kv=2.4 kva=10000.0 %r=0.003
~ wdg=2 bus=trip_node_675_C_4.1.0 Kv=0.12 kva=1000.0 %r=0.006
~ wdg=3 bus=trip_node_675_C_4.0.2 Kv=0.12 kva=1000.0 %r=0.006 Xhl=2.04  Xht=2.04  Xlt=1.36

New Transformer.xfmr_675_C_5 phases=1 windings=3
~ wdg=1 bus=xfmr_meter_675_C_5.3 Kv=2.4 kva=10000.0 %r=0.003
~ wdg=2 bus=trip_node_675_C_5.1.0 Kv=0.12 kva=1000.0 %r=0.006
~ wdg=3 bus=trip_node_675_C_5.0.2 Kv=0.12 kva=1000.0 %r=0.006 Xhl=2.04  Xht=2.04  Xlt=1.36

New Transformer.xfmr_671_A_1 phases=1 windings=3
~ wdg=1 bus=xfmr_meter_671_A_1.1 Kv=2.4 kva=10000.0 %r=0.003
~ wdg=2 bus=trip_node_671_A_1.1.0 Kv=0.12 kva=1000.0 %r=0.006
~ wdg=3 bus=trip_node_671_A_1.0.2 Kv=0.12 kva=1000.0 %r=0.006 Xhl=2.04  Xht=2.04  Xlt=1.36

New Transformer.xfmr_671_A_2 phases=1 windings=3
~ wdg=1 bus=xfmr_meter_671_A_2.1 Kv=2.4 kva=10000.0 %r=0.003
~ wdg=2 bus=trip_node_671_A_2.1.0 Kv=0.12 kva=1000.0 %r=0.006
~ wdg=3 bus=trip_node_671_A_2.0.2 Kv=0.12 kva=1000.0 %r=0.006 Xhl=2.04  Xht=2.04  Xlt=1.36

New Transformer.xfmr_671_A_3 phases=1 windings=3
~ wdg=1 bus=xfmr_meter_671_A_3.1 Kv=2.4 kva=10000.0 %r=0.003
~ wdg=2 bus=trip_node_671_A_3.1.0 Kv=0.12 kva=1000.0 %r=0.006
~ wdg=3 bus=trip_node_671_A_3.0.2 Kv=0.12 kva=1000.0 %r=0.006 Xhl=2.04  Xht=2.04  Xlt=1.36

New Transformer.xfmr_671_A_4 phases=1 windings=3
~ wdg=1 bus=xfmr_meter_671_A_4.1 Kv=2.4 kva=10000.0 %r=0.003
~ wdg=2 bus=trip_node_671_A_4.1.0 Kv=0.12 kva=1000.0 %r=0.006
~ wdg=3 bus=trip_node_671_A_4.0.2 Kv=0.12 kva=1000.0 %r=0.006 Xhl=2.04  Xht=2.04  Xlt=1.36

New Transformer.xfmr_671_A_5 phases=1 windings=3
~ wdg=1 bus=xfmr_meter_671_A_5.1 Kv=2.4 kva=10000.0 %r=0.003
~ wdg=2 bus=trip_node_671_A_5.1.0 Kv=0.12 kva=1000.0 %r=0.006
~ wdg=3 bus=trip_node_671_A_5.0.2 Kv=0.12 kva=1000.0 %r=0.006 Xhl=2.04  Xht=2.04  Xlt=1.36

New Transformer.xfmr_671_B_1 phases=1 windings=3
~ wdg=1 bus=xfmr_meter_671_B_1.2 Kv=2.4 kva=10000.0 %r=0.003
~ wdg=2 bus=trip_node_671_B_1.1.0 Kv=0.12 kva=1000.0 %r=0.006
~ wdg=3 bus=trip_node_671_B_1.0.2 Kv=0.12 kva=1000.0 %r=0.006 Xhl=2.04  Xht=2.04  Xlt=1.36

New Transformer.xfmr_671_B_2 phases=1 windings=3
~ wdg=1 bus=xfmr_meter_671_B_2.2 Kv=2.4 kva=10000.0 %r=0.003
~ wdg=2 bus=trip_node_671_B_2.1.0 Kv=0.12 kva=1000.0 %r=0.006
~ wdg=3 bus=trip_node_671_B_2.0.2 Kv=0.12 kva=1000.0 %r=0.006 Xhl=2.04  Xht=2.04  Xlt=1.36

New Transformer.xfmr_671_B_3 phases=1 windings=3
~ wdg=1 bus=xfmr_meter_671_B_3.2 Kv=2.4 kva=10000.0 %r=0.003
~ wdg=2 bus=trip_node_671_B_3.1.0 Kv=0.12 kva=1000.0 %r=0.006
~ wdg=3 bus=trip_node_671_B_3.0.2 Kv=0.12 kva=1000.0 %r=0.006 Xhl=2.04  Xht=2.04  Xlt=1.36

New Transformer.xfmr_671_B_4 phases=1 windings=3
~ wdg=1 bus=xfmr_meter_671_B_4.2 Kv=2.4 kva=10000.0 %r=0.003
~ wdg=2 bus=trip_node_671_B_4.1.0 Kv=0.12 kva=1000.0 %r=0.006
~ wdg=3 bus=trip_node_671_B_4.0.2 Kv=0.12 kva=1000.0 %r=0.006 Xhl=2.04  Xht=2.04  Xlt=1.36

New Transformer.xfmr_671_B_5 phases=1 windings=3
~ wdg=1 bus=xfmr_meter_671_B_5.2 Kv=2.4 kva=10000.0 %r=0.003
~ wdg=2 bus=trip_node_671_B_5.1.0 Kv=0.12 kva=1000.0 %r=0.006
~ wdg=3 bus=trip_node_671_B_5.0.2 Kv=0.12 kva=1000.0 %r=0.006 Xhl=2.04  Xht=2.04  Xlt=1.36

New Transformer.xfmr_671_C_1 phases=1 windings=3
~ wdg=1 bus=xfmr_meter_671_C_1.3 Kv=2.4 kva=10000.0 %r=0.003
~ wdg=2 bus=trip_node_671_C_1.1.0 Kv=0.12 kva=1000.0 %r=0.006
~ wdg=3 bus=trip_node_671_C_1.0.2 Kv=0.12 kva=1000.0 %r=0.006 Xhl=2.04  Xht=2.04  Xlt=1.36

New Transformer.xfmr_671_C_2 phases=1 windings=3
~ wdg=1 bus=xfmr_meter_671_C_2.3 Kv=2.4 kva=10000.0 %r=0.003
~ wdg=2 bus=trip_node_671_C_2.1.0 Kv=0.12 kva=1000.0 %r=0.006
~ wdg=3 bus=trip_node_671_C_2.0.2 Kv=0.12 kva=1000.0 %r=0.006 Xhl=2.04  Xht=2.04  Xlt=1.36

New Transformer.xfmr_671_C_3 phases=1 windings=3
~ wdg=1 bus=xfmr_meter_671_C_3.3 Kv=2.4 kva=10000.0 %r=0.003
~ wdg=2 bus=trip_node_671_C_3.1.0 Kv=0.12 kva=1000.0 %r=0.006
~ wdg=3 bus=trip_node_671_C_3.0.2 Kv=0.12 kva=1000.0 %r=0.006 Xhl=2.04  Xht=2.04  Xlt=1.36

New Transformer.xfmr_671_C_4 phases=1 windings=3
~ wdg=1 bus=xfmr_meter_671_C_4.3 Kv=2.4 kva=10000.0 %r=0.003
~ wdg=2 bus=trip_node_671_C_4.1.0 Kv=0.12 kva=1000.0 %r=0.006
~ wdg=3 bus=trip_node_671_C_4.0.2 Kv=0.12 kva=1000.0 %r=0.006 Xhl=2.04  Xht=2.04  Xlt=1.36

New Transformer.xfmr_671_C_5 phases=1 windings=3
~ wdg=1 bus=xfmr_meter_671_C_5.3 Kv=2.4 kva=10000.0 %r=0.003
~ wdg=2 bus=trip_node_671_C_5.1.0 Kv=0.12 kva=1000.0 %r=0.006
~ wdg=3 bus=trip_node_671_C_5.0.2 Kv=0.12 kva=1000.0 %r=0.006 Xhl=2.04  Xht=2.04  Xlt=1.36

New Transformer.xfmr_680_A_1 phases=1 windings=3
~ wdg=1 bus=xfmr_meter_680_A_1.1 Kv=2.4 kva=10000.0 %r=0.003
~ wdg=2 bus=trip_node_680_A_1.1.0 Kv=0.12 kva=1000.0 %r=0.006
~ wdg=3 bus=trip_node_680_A_1.0.2 Kv=0.12 kva=1000.0 %r=0.006 Xhl=2.04  Xht=2.04  Xlt=1.36

New Transformer.xfmr_680_A_2 phases=1 windings=3
~ wdg=1 bus=xfmr_meter_680_A_2.1 Kv=2.4 kva=10000.0 %r=0.003
~ wdg=2 bus=trip_node_680_A_2.1.0 Kv=0.12 kva=1000.0 %r=0.006
~ wdg=3 bus=trip_node_680_A_2.0.2 Kv=0.12 kva=1000.0 %r=0.006 Xhl=2.04  Xht=2.04  Xlt=1.36

New Transformer.xfmr_680_A_3 phases=1 windings=3
~ wdg=1 bus=xfmr_meter_680_A_3.1 Kv=2.4 kva=10000.0 %r=0.003
~ wdg=2 bus=trip_node_680_A_3.1.0 Kv=0.12 kva=1000.0 %r=0.006
~ wdg=3 bus=trip_node_680_A_3.0.2 Kv=0.12 kva=1000.0 %r=0.006 Xhl=2.04  Xht=2.04  Xlt=1.36

New Transformer.xfmr_680_A_4 phases=1 windings=3
~ wdg=1 bus=xfmr_meter_680_A_4.1 Kv=2.4 kva=10000.0 %r=0.003
~ wdg=2 bus=trip_node_680_A_4.1.0 Kv=0.12 kva=1000.0 %r=0.006
~ wdg=3 bus=trip_node_680_A_4.0.2 Kv=0.12 kva=1000.0 %r=0.006 Xhl=2.04  Xht=2.04  Xlt=1.36

New Transformer.xfmr_680_A_5 phases=1 windings=3