Clear

New Circuit.psu_13_node_feeder_7
~ basekv=4.16 bus1=N650 pu=1.00 R1=0 X1=0.0001 R0=0 X0=0.0001

set earthmodel=carson // gridLAB-D compatibility

New Linecode.1P_UG_Code0 units=km nphases=1
~ rmatrix = [0.251742424]
~ xmatrix = [0.255208333]
~ cmatrix = [2.270366128]

New Linecode.3P_UG_Code1 units=km nphases=3
~ rmatrix = [0.086666667 | 0.029545455 0.088371212 | 0.02907197 0.029924242 0.087405303]
~ xmatrix = [0.204166667 | 0.095018939 0.198522727 | 0.072897727 0.080227273 0.201723485]
~ cmatrix = [2.851710072 | -0.920293787  3.004631862 | -0.350755566  -0.585011253 2.71134756]

New Linecode.3P_Code2 units=km nphases=3
~ rmatrix = [0.086666667 | 0.029545455 0.088371212 | 0.02907197 0.029924242 0.087405303]
~ xmatrix = [0.204166667 | 0.095018939 0.198522727 | 0.072897727 0.080227273 0.201723485]
~ cmatrix = [2.851710072 | -0.920293787  3.004631862 | -0.350755566  -0.585011253 2.71134756]

New Linecode.3P_OH_Code3 units=km nphases=3
~ rmatrix = [0.086666667 | 0.029545455 0.088371212 | 0.02907197 0.029924242 0.087405303]
~ xmatrix = [0.204166667 | 0.095018939 0.198522727 | 0.072897727 0.080227273 0.201723485]
~ cmatrix = [2.851710072 | -0.920293787  3.004631862 | -0.350755566  -0.585011253 2.71134756]

New Linecode.2P_OH_Code4 units=km nphases=2
~ rmatrix = [0.086666667 | 0.02907197  0.087405303]
~ xmatrix = [0.204166667 | 0.072897727  0.201723485]
~ cmatrix = [2.569829596 | -0.52995137  2.597460011]

New Linecode.1P_OH_Code5 units=km nphases=1
~ rmatrix = [0.251742424]
~ xmatrix = [0.255208333]
~ cmatrix = [2.270366128]

New Linecode.3P_OH_Code6 units=km nphases=3
~ rmatrix = [0.086666667 | 0.029545455 0.088371212 | 0.02907197 0.029924242 0.087405303]
~ xmatrix = [0.204166667 | 0.095018939 0.198522727 | 0.072897727 0.080227273 0.201723485]
~ cmatrix = [2.851710072 | -0.920293787  3.004631862 | -0.350755566  -0.585011253 2.71134756]

New Linecode.2P_OH_Code7 units=km nphases=2
~ rmatrix = [0.086666667 | 0.02907197  0.087405303]
~ xmatrix = [0.204166667 | 0.072897727  0.201723485]
~ cmatrix = [2.569829596 | -0.52995137  2.597460011]

New Line.UL684-652 Units=km Length=0.24384
~ bus1=N684.1
~ bus2=N652.1 switch=n enabled=y phases=1 Linecode=1P_UG_Code0

New Line.UL692-675 Units=km Length=0.1524
~ bus1=N692.1.2.3
~ bus2=N675.1.2.3 switch=n enabled=y phases=3 Linecode=3P_UG_Code1

New Line.S671-692 Units=km Length=0.001
~ bus1=N671.1.2.3
~ bus2=N692.1.2.3 switch=y enabled=n phases=3 Linecode=3P_Code2

New Line.ol_630_632 Units=km Length=0.6096
~ bus1=N630.1.2.3
~ bus2=N632.1.2.3 switch=n enabled=y phases=3 Linecode=3P_OH_Code3

New Line.ol_632_6321 Units=km Length=0.1524
~ bus1=N632.1.2.3
~ bus2=N6321.1.2.3 switch=n enabled=y phases=3 Linecode=3P_OH_Code3

New Line.ol_632_645 Units=km Length=0.1524
~ bus1=N632.1.2.3
~ bus2=N645.1.2.3 switch=n enabled=y phases=3 Linecode=3P_OH_Code3

New Line.ol_6321_671 Units=km Length=0.45720000000000005
~ bus1=N6321.1.2.3
~ bus2=N671.1.2.3 switch=n enabled=y phases=3 Linecode=3P_OH_Code3

New Line.ol_671_680 Units=km Length=0.3048
~ bus1=N671.1.2.3
~ bus2=N680.1.2.3 switch=n enabled=y phases=3 Linecode=3P_OH_Code3

New Line.ol_671_684 Units=km Length=0.09144
~ bus1=N671.1.3
~ bus2=N684.1.3 switch=n enabled=y phases=2 Linecode=2P_OH_Code4

New Line.ol_684_611 Units=km Length=0.09144
~ bus1=N684.3
~ bus2=N611.3 switch=n enabled=y phases=1 Linecode=1P_OH_Code5

New Line.ol_632_633 Units=km Length=0.1524
~ bus1=N632.1.2.3
~ bus2=N633.1.2.3 switch=n enabled=y phases=3 Linecode=3P_OH_Code6

New Line.ol_645_646 Units=km Length=0.09144
~ bus1=N645.2.3
~ bus2=N646.2.3 switch=n enabled=y phases=2 Linecode=2P_OH_Code7


New Transformer.T633-634 phases=3 windings=2
~ wdg=1 conn=wye Kv=4.16 kva=500.0 %R=0.0055 bus=N633
~ wdg=2 conn=wye Kv=0.48 kva=500.0 %R=0.0055 bus=N634 XHL=0.02

New Transformer.xfmr_652_A_1 phases=1 windings=3
~ wdg=1 bus=N652.1 Kv=2.4 kva=100.0 %r=0.003
~ wdg=2 bus=trip_node_652_A_1.1.0 Kv=0.12 kva=50.0 %r=0.006
~ wdg=3 bus=trip_node_652_A_1.0.2 Kv=0.12 kva=50.0 %r=0.006 Xhl=2.04  Xht=2.04  Xlt=1.36

New Transformer.xfmr_652_A_2 phases=1 windings=3
~ wdg=1 bus=N652.1 Kv=2.4 kva=100.0 %r=0.003
~ wdg=2 bus=trip_node_652_A_2.1.0 Kv=0.12 kva=50.0 %r=0.006
~ wdg=3 bus=trip_node_652_A_2.0.2 Kv=0.12 kva=50.0 %r=0.006 Xhl=2.04  Xht=2.04  Xlt=1.36

New Transformer.xfmr_652_A_3 phases=1 windings=3
~ wdg=1 bus=N652.1 Kv=2.4 kva=100.0 %r=0.003
~ wdg=2 bus=trip_node_652_A_3.1.0 Kv=0.12 kva=50.0 %r=0.006
~ wdg=3 bus=trip_node_652_A_3.0.2 Kv=0.12 kva=50.0 %r=0.006 Xhl=2.04  Xht=2.04  Xlt=1.36

New Transformer.xfmr_652_A_4 phases=1 windings=3
~ wdg=1 bus=N652.1 Kv=2.4 kva=100.0 %r=0.003
~ wdg=2 bus=trip_node_652_A_4.1.0 Kv=0.12 kva=50.0 %r=0.006
~ wdg=3 bus=trip_node_652_A_4.0.2 Kv=0.12 kva=50.0 %r=0.006 Xhl=2.04  Xht=2.04  Xlt=1.36

New Transformer.xfmr_652_A_5 phases=1 windings=3
~ wdg=1 bus=N652.1 Kv=2.4 kva=100.0 %r=0.003
~ wdg=2 bus=trip_node_652_A_5.1.0 Kv=0.12 kva=50.0 %r=0.006
~ wdg=3 bus=trip_node_652_A_5.0.2 Kv=0.12 kva=50.0 %r=0.006 Xhl=2.04  Xht=2.04  Xlt=1.36

New Transformer.xfmr_611_C_1 phases=1 windings=3
~ wdg=1 bus=N611.3 Kv=2.4 kva=100.0 %r=0.003
~ wdg=2 bus=trip_node_611_C_1.1.0 Kv=0.12 kva=50.0 %r=0.006
~ wdg=3 bus=trip_node_611_C_1.0.2 Kv=0.12 kva=50.0 %r=0.006 Xhl=2.04  Xht=2.04  Xlt=1.36

New Transformer.xfmr_611_C_2 phases=1 windings=3
~ wdg=1 bus=N611.3 Kv=2.4 kva=100.0 %r=0.003
~ wdg=2 bus=trip_node_611_C_2.1.0 Kv=0.12 kva=50.0 %r=0.006
~ wdg=3 bus=trip_node_611_C_2.0.2 Kv=0.12 kva=50.0 %r=0.006 Xhl=2.04  Xht=2.04  Xlt=1.36

New Transformer.xfmr_611_C_3 phases=1 windings=3
~ wdg=1 bus=N611.3 Kv=2.4 kva=100.0 %r=0.003
~ wdg=2 bus=trip_node_611_C_3.1.0 Kv=0.12 kva=50.0 %r=0.006
~ wdg=3 bus=trip_node_611_C_3.0.2 Kv=0.12 kva=50.0 %r=0.006 Xhl=2.04  Xht=2.04  Xlt=1.36

New Transformer.xfmr_611_C_4 phases=1 windings=3
~ wdg=1 bus=N611.3 Kv=2.4 kva=100.0 %r=0.003
~ wdg=2 bus=trip_node_611_C_4.1.0 Kv=0.12 kva=50.0 %r=0.006
~ wdg=3 bus=trip_node_611_C_4.0.2 Kv=0.12 kva=50.0 %r=0.006 Xhl=2.04  Xht=2.04  Xlt=1.36

New Transformer.xfmr_611_C_5 phases=1 windings=3
~ wdg=1 bus=N611.3 Kv=2.4 kva=100.0 %r=0.003
~ wdg=2 bus=trip_node_611_C_5.1.0 Kv=0.12 kva=50.0 %r=0.006
~ wdg=3 bus=trip_node_611_C_5.0.2 Kv=0.12 kva=50.0 %r=0.006 Xhl=2.04  Xht=2.04  Xlt=1.36

New Transformer.xfmr_684_C_1 phases=1 windings=3
~ wdg=1 bus=N684.3 Kv=2.4 kva=100.0 %r=0.003
~ wdg=2 bus=trip_node_684_C_1.1.0 Kv=0.12 kva=50.0 %r=0.006
~ wdg=3 bus=trip_node_684_C_1.0.2 Kv=0.12 kva=50.0 %r=0.006 Xhl=2.04  Xht=2.04  Xlt=1.36

New Transformer.xfmr_684_C_2 phases=1 windings=3
~ wdg=1 bus=N684.3 Kv=2.4 kva=100.0 %r=0.003
~ wdg=2 bus=trip_node_684_C_2.1.0 Kv=0.12 kva=50.0 %r=0.006
~ wdg=3 bus=trip_node_684_C_2.0.2 Kv=0.12 kva=50.0 %r=0.006 Xhl=2.04  Xht=2.04  Xlt=1.36

New Transformer.xfmr_684_C_3 phases=1 windings=3
~ wdg=1 bus=N684.3 Kv=2.4 kva=100.0 %r=0.003
~ wdg=2 bus=trip_node_684_C_3.1.0 Kv=0.12 kva=50.0 %r=0.006
~ wdg=3 bus=trip_node_684_C_3.0.2 Kv=0.12 kva=50.0 %r=0.006 Xhl=2.04  Xht=2.04  Xlt=1.36

New Transformer.xfmr_684_C_4 phases=1 windings=3
~ wdg=1 bus=N684.3 Kv=2.4 kva=100.0 %r=0.003
~ wdg=2 bus=trip_node_684_C_4.1.0 Kv=0.12 kva=50.0 %r=0.006
~ wdg=3 bus=trip_node_684_C_4.0.2 Kv=0.12 kva=50.0 %r=0.006 Xhl=2.04  Xht=2.04  Xlt=1.36

New Transformer.xfmr_684_C_5 phases=1 windings=3
~ wdg=1 bus=N684.3 Kv=2.4 kva=100.0 %r=0.003
~ wdg=2 bus=trip_node_684_C_5.1.0 Kv=0.12 kva=50.0 %r=0.006
~ wdg=3 bus=trip_node_684_C_5.0.2 Kv=0.12 kva=50.0 %r=0.006 Xhl=2.04  Xht=2.04  Xlt=1.36

New Transformer.xfmr_684_A_1 phases=1 windings=3
~ wdg=1 bus=N684.1 Kv=2.4 kva=100.0 %r=0.003
~ wdg=2 bus=trip_node_684_A_1.1.0 Kv=0.12 kva=50.0 %r=0.006
~ wdg=3 bus=trip_node_684_A_1.0.2 Kv=0.12 kva=50.0 %r=0.006 Xhl=2.04  Xht=2.04  Xlt=1.36

New Transformer.xfmr_684_A_2 phases=1 windings=3
~ wdg=1 bus=N684.1 Kv=2.4 kva=100.0 %r=0.003
~ wdg=2 bus=trip_node_684_A_2.1.0 Kv=0.12 kva=50.0 %r=0.006
~ wdg=3 bus=trip_node_684_A_2.0.2 Kv=0.12 kva=50.0 %r=0.006 Xhl=2.04  Xht=2.04  Xlt=1.36

New Transformer.xfmr_684_A_3 phases=1 windings=3
~ wdg=1 bus=N684.1 Kv=2.4 kva=100.0 %r=0.003
~ wdg=2 bus=trip_node_684_A_3.1.0 Kv=0.12 kva=50.0 %r=0.006
~ wdg=3 bus=trip_node_684_A_3.0.2 Kv=0.12 kva=50.0 %r=0.006 Xhl=2.04  Xht=2.04  Xlt=1.36

New Transformer.xfmr_684_A_4 phases=1 windings=3
~ wdg=1 bus=N684.1 Kv=2.4 kva=100.0 %r=0.003
~ wdg=2 bus=trip_node_684_A_4.1.0 Kv=0.12 kva=50.0 %r=0.006
~ wdg=3 bus=trip_node_684_A_4.0.2 Kv=0.12 kva=50.0 %r=0.006 Xhl=2.04  Xht=2.04  Xlt=1.36

New Transformer.xfmr_684_A_5 phases=1 windings=3
~ wdg=1 bus=N684.1 Kv=2.4 kva=100.0 %r=0.003
~ wdg=2 bus=trip_node_684_A_5.1.0 Kv=0.12 kva=50.0 %r=0.006
~ wdg=3 bus=trip_node_684_A_5.0.2 Kv=0.12 kva=50.0 %r=0.006 Xhl=2.04  Xht=2.04  Xlt=1.36

New Transformer.xfmr_645_B_1 phases=1 windings=3
~ wdg=1 bus=N645.2 Kv=2.4 kva=100.0 %r=0.003
~ wdg=2 bus=trip_node_645_B_1.1.0 Kv=0.12 kva=50.0 %r=0.006
~ wdg=3 bus=trip_node_645_B_1.0.2 Kv=0.12 kva=50.0 %r=0.006 Xhl=2.04  Xht=2.04  Xlt=1.36

New Transformer.xfmr_645_B_2 phases=1 windings=3
~ wdg=1 bus=N645.2 Kv=2.4 kva=100.0 %r=0.003
~ wdg=2 bus=trip_node_645_B_2.1.0 Kv=0.12 kva=50.0 %r=0.006
~ wdg=3 bus=trip_node_645_B_2.0.2 Kv=0.12 kva=50.0 %r=0.006 Xhl=2.04  Xht=2.04  Xlt=1.36

New Transformer.xfmr_645_B_3 phases=1 windings=3
~ wdg=1 bus=N645.2 Kv=2.4 kva=100.0 %r=0.003
~ wdg=2 bus=trip_node_645_B_3.1.0 Kv=0.12 kva=50.0 %r=0.006
~ wdg=3 bus=trip_node_645_B_3.0.2 Kv=0.12 kva=50.0 %r=0.006 Xhl=2.04  Xht=2.04  Xlt=1.36

New Transformer.xfmr_645_B_4 phases=1 windings=3
~ wdg=1 bus=N645.2 Kv=2.4 kva=100.0 %r=0.003
~ wdg=2 bus=trip_node_645_B_4.1.0 Kv=0.12 kva=50.0 %r=0.006
~ wdg=3 bus=trip_node_645_B_4.0.2 Kv=0.12 kva=50.0 %r=0.006 Xhl=2.04  Xht=2.04  Xlt=1.36

New Transformer.xfmr_645_B_5 phases=1 windings=3
~ wdg=1 bus=N645.2 Kv=2.4 kva=100.0 %r=0.003
~ wdg=2 bus=trip_node_645_B_5.1.0 Kv=0.12 kva=50.0 %r=0.006
~ wdg=3 bus=trip_node_645_B_5.0.2 Kv=0.12 kva=50.0 %r=0.006 Xhl=2.04  Xht=2.04  Xlt=1.36

New Transformer.xfmr_645_C_1 phases=1 windings=3
~ wdg=1 bus=N645.3 Kv=2.4 kva=100.0 %r=0.003
~ wdg=2 bus=trip_node_645_C_1.1.0 Kv=0.12 kva=50.0 %r=0.006
~ wdg=3 bus=trip_node_645_C_1.0.2 Kv=0.12 kva=50.0 %r=0.006 Xhl=2.04  Xht=2.04  Xlt=1.36

New Transformer.xfmr_645_C_2 phases=1 windings=3
~ wdg=1 bus=N645.3 Kv=2.4 kva=100.0 %r=0.003
~ wdg=2 bus=trip_node_645_C_2.1.0 Kv=0.12 kva=50.0 %r=0.006
~ wdg=3 bus=trip_node_645_C_2.0.2 Kv=0.12 kva=50.0 %r=0.006 Xhl=2.04  Xht=2.04  Xlt=1.36

New Transformer.xfmr_645_C_3 phases=1 windings=3
~ wdg=1 bus=N645.3 Kv=2.4 kva=100.0 %r=0.003
~ wdg=2 bus=trip_node_645_C_3.1.0 Kv=0.12 kva=50.0 %r=0.006
~ wdg=3 bus=trip_node_645_C_3.0.2 Kv=0.12 kva=50.0 %r=0.006 Xhl=2.04  Xht=2.04  Xlt=1.36

New Transformer.xfmr_645_C_4 phases=1 windings=3
~ wdg=1 bus=N645.3 Kv=2.4 kva=100.0 %r=0.003
~ wdg=2 bus=trip_node_645_C_4.1.0 Kv=0.12 kva=50.0 %r=0.006
~ wdg=3 bus=trip_node_645_C_4.0.2 Kv=0.12 kva=50.0 %r=0.006 Xhl=2.04  Xht=2.04  Xlt=1.36

New Transformer.xfmr_645_C_5 phases=1 windings=3
~ wdg=1 bus=N645.3 Kv=2.4 kva=100.0 %r=0.003
~ wdg=2 bus=trip_node_645_C_5.1.0 Kv=0.12 kva=50.0 %r=0.006
~ wdg=3 bus=trip_node_645_C_5.0.2 Kv=0.12 kva=50.0 %r=0.006 Xhl=2.04  Xht=2.04  Xlt=1.36

New Transformer.xfmr_633_A_1 phases=1 windings=3
~ wdg=1 bus=N633.1 Kv=2.4 kva=100.0 %r=0.003
~ wdg=2 bus=trip_node_633_A_1.1.0 Kv=0.12 kva=50.0 %r=0.006
~ wdg=3 bus=trip_node_633_A_1.0.2 Kv=0.12 kva=50.0 %r=0.006 Xhl=2.04  Xht=2.04  Xlt=1.36

New Transformer.xfmr_633_A_2 phases=1 windings=3
~ wdg=1 bus=N633.1 Kv=2.4 kva=100.0 %r=0.003
~ wdg=2 bus=trip_node_633_A_2.1.0 Kv=0.12 kva=50.0 %r=0.006
~ wdg=3 bus=trip_node_633_A_2.0.2 Kv=0.12 kva=50.0 %r=0.006 Xhl=2.04  Xht=2.04  Xlt=1.36

New Transformer.xfmr_633_A_3 phases=1 windings=3
~ wdg=1 bus=N633.1 Kv=2.4 kva=100.0 %r=0.003
~ wdg=2 bus=trip_node_633_A_3.1.0 Kv=0.12 kva=50.0 %r=0.006
~ wdg=3 bus=trip_node_633_A_3.0.2 Kv=0.12 kva=50.0 %r=0.006 Xhl=2.04  Xht=2.04  Xlt=1.36

New Transformer.xfmr_633_A_4 phases=1 windings=3
~ wdg=1 bus=N633.1 Kv=2.4 kva=100.0 %r=0.003
~ wdg=2 bus=trip_node_633_A_4.1.0 Kv=0.12 kva=50.0 %r=0.006
~ wdg=3 bus=trip_node_633_A_4.0.2 Kv=0.12 kva=50.0 %r=0.006 Xhl=2.04  Xht=2.04  Xlt=1.36

New Transformer.xfmr_633_A_5 phases=1 windings=3
~ wdg=1 bus=N633.1 Kv=2.4 kva=100.0 %r=0.003
~ wdg=2 bus=trip_node_633_A_5.1.0 Kv=0.12 kva=50.0 %r=0.006
~ wdg=3 bus=trip_node_633_A_5.0.2 Kv=0.12 kva=50.0 %r=0.006 Xhl=2.04  Xht=2.04  Xlt=1.36

New Transformer.xfmr_633_B_1 phases=1 windings=3
~ wdg=1 bus=N633.2 Kv=2.4 kva=100.0 %r=0.003
~ wdg=2 bus=trip_node_633_B_1.1.0 Kv=0.12 kva=50.0 %r=0.006
~ wdg=3 bus=trip_node_633_B_1.0.2 Kv=0.12 kva=50.0 %r=0.006 Xhl=2.04  Xht=2.04  Xlt=1.36

New Transformer.xfmr_633_B_2 phases=1 windings=3
~ wdg=1 bus=N633.2 Kv=2.4 kva=100.0 %r=0.003
~ wdg=2 bus=trip_node_633_B_2.1.0 Kv=0.12 kva=50.0 %r=0.006
~ wdg=3 bus=trip_node_633_B_2.0.2 Kv=0.12 kva=50.0 %r=0.006 Xhl=2.04  Xht=2.04  Xlt=1.36

New Transformer.xfmr_633_B_3 phases=1 windings=3
~ wdg=1 bus=N633.2 Kv=2.4 kva=100.0 %r=0.003
~ wdg=2 bus=trip_node_633_B_3.1.0 Kv=0.12 kva=50.0 %r=0.006
~ wdg=3 bus=trip_node_633_B_3.0.2 Kv=0.12 kva=50.0 %r=0.006 Xhl=2.04  Xht=2.04  Xlt=1.36

New Transformer.xfmr_633_B_4 phases=1 windings=3
~ wdg=1 bus=N633.2 Kv=2.4 kva=100.0 %r=0.003
~ wdg=2 bus=trip_node_633_B_4.1.0 Kv=0.12 kva=50.0 %r=0.006
~ wdg=3 bus=trip_node_633_B_4.0.2 Kv=0.12 kva=50.0 %r=0.006 Xhl=2.04  Xht=2.04  Xlt=1.36

New Transformer.xfmr_633_B_5 phases=1 windings=3
~ wdg=1 bus=N633.2 Kv=2.4 kva=100.0 %r=0.003
~ wdg=2 bus=trip_node_633_B_5.1.0 Kv=0.12 kva=50.0 %r=0.006
~ wdg=3 bus=trip_node_633_B_5.0.2 Kv=0.12 kva=50.0 %r=0.006 Xhl=2.04  Xht=2.04  Xlt=1.36

New Transformer.xfmr_633_C_1 phases=1 windings=3
~ wdg=1 bus=N633.3 Kv=2.4 kva=100.0 %r=0.003
~ wdg=2 bus=trip_node_633_C_1.1.0 Kv=0.12 kva=50.0 %r=0.006
~ wdg=3 bus=trip_node_633_C_1.0.2 Kv=0.12 kva=50.0 %r=0.006 Xhl=2.04  Xht=2.04  Xlt=1.36

New Transformer.xfmr_633_C_2 phases=1 windings=3
~ wdg=1 bus=N633.3 Kv=2.4 kva=100.0 %r=0.003
~ wdg=2 bus=trip_node_633_C_2.1.0 Kv=0.12 kva=50.0 %r=0.006
~ wdg=3 bus=trip_node_633_C_2.0.2 Kv=0.12 kva=50.0 %r=0.006 Xhl=2.04  Xht=2.04  Xlt=1.36

New Transformer.xfmr_633_C_3 phases=1 windings=3
~ wdg=1 bus=N633.3 Kv=2.4 kva=100.0 %r=0.003
~ wdg=2 bus=trip_node_633_C_3.1.0 Kv=0.12 kva=50.0 %r=0.006
~ wdg=3 bus=trip_node_633_C_3.0.2 Kv=0.12 kva=50.0 %r=0.006 Xhl=2.04  Xht=2.04  Xlt=1.36

New Transformer.xfmr_633_C_4 phases=1 windings=3
~ wdg=1 bus=N633.3 Kv=2.4 kva=100.0 %r=0.003
~ wdg=2 bus=trip_node_633_C_4.1.0 Kv=0.12 kva=50.0 %r=0.006
~ wdg=3 bus=trip_node_633_C_4.0.2 Kv=0.12 kva=50.0 %r=0.006 Xhl=2.04  Xht=2.04  Xlt=1.36

New Transformer.xfmr_633_C_5 phases=1 windings=3
~ wdg=1 bus=N633.3 Kv=2.4 kva=100.0 %r=0.003
~ wdg=2 bus=trip_node_633_C_5.1.0 Kv=0.12 kva=50.0 %r=0.006
~ wdg=3 bus=trip_node_633_C_5.0.2 Kv=0.12 kva=50.0 %r=0.006 Xhl=2.04  Xht=2.04  Xlt=1.36

New Transformer.xfmr_632_A_1 phases=1 windings=3
~ wdg=1 bus=N632.1 Kv=2.4 kva=100.0 %r=0.003
~ wdg=2 bus=trip_node_632_A_1.1.0 Kv=0.12 kva=50.0 %r=0.006
~ wdg=3 bus=trip_node_632_A_1.0.2 Kv=0.12 kva=50.0 %r=0.006 Xhl=2.04  Xht=2.04  Xlt=1.36

New Transformer.xfmr_632_A_2 phases=1 windings=3
~ wdg=1 bus=N632.1 Kv=2.4 kva=100.0 %r=0.003
~ wdg=2 bus=trip_node_632_A_2.1.0 Kv=0.12 kva=50.0 %r=0.006
~ wdg=3 bus=trip_node_632_A_2.0.2 Kv=0.12 kva=50.0 %r=0.006 Xhl=2.04  Xht=2.04  Xlt=1.36

New Transformer.xfmr_632_A_3 phases=1 windings=3
~ wdg=1 bus=N632.1 Kv=2.4 kva=100.0 %r=0.003
~ wdg=2 bus=trip_node_632_A_3.1.0 Kv=0.12 kva=50.0 %r=0.006
~ wdg=3 bus=trip_node_632_A_3.0.2 Kv=0.12 kva=50.0 %r=0.006 Xhl=2.04  Xht=2.04  Xlt=1.36

New Transformer.xfmr_632_A_4 phases=1 windings=3
~ wdg=1 bus=N632.1 Kv=2.4 kva=100.0 %r=0.003
~ wdg=2 bus=trip_node_632_A_4.1.0 Kv=0.12 kva=50.0 %r=0.006
~ wdg=3 bus=trip_node_632_A_4.0.2 Kv=0.12 kva=50.0 %r=0.006 Xhl=2.04  Xht=2.04  Xlt=1.36

New Transformer.xfmr_632_A_5 phases=1 windings=3
~ wdg=1 bus=N632.1 Kv=2.4 kva=100.0 %r=0.003
~ wdg=2 bus=trip_node_632_A_5.1.0 Kv=0.12 kva=50.0 %r=0.006
~ wdg=3 bus=trip_node_632_A_5.0.2 Kv=0.12 kva=50.0 %r=0.006 Xhl=2.04  Xht=2.04  Xlt=1.36

New Transformer.xfmr_632_B_1 phases=1 windings=3
~ wdg=1 bus=N632.2 Kv=2.4 kva=100.0 %r=0.003
~ wdg=2 bus=trip_node_632_B_1.1.0 Kv=0.12 kva=50.0 %r=0.006
~ wdg=3 bus=trip_node_632_B_1.0.2 Kv=0.12 kva=50.0 %r=0.006 Xhl=2.04  Xht=2.04  Xlt=1.36

New Transformer.xfmr_632_B_2 phases=1 windings=3
~ wdg=1 bus=N632.2 Kv=2.4 kva=100.0 %r=0.003
~ wdg=2 bus=trip_node_632_B_2.1.0 Kv=0.12 kva=50.0 %r=0.006
~ wdg=3 bus=trip_node_632_B_2.0.2 Kv=0.12 kva=50.0 %r=0.006 Xhl=2.04  Xht=2.04  Xlt=1.36

New Transformer.xfmr_632_B_3 phases=1 windings=3
~ wdg=1 bus=N632.2 Kv=2.4 kva=100.0 %r=0.003
~ wdg=2 bus=trip_node_632_B_3.1.0 Kv=0.12 kva=50.0 %r=0.006
~ wdg=3 bus=trip_node_632_B_3.0.2 Kv=0.12 kva=50.0 %r=0.006 Xhl=2.04  Xht=2.04  Xlt=1.36

New Transformer.xfmr_632_B_4 phases=1 windings=3
~ wdg=1 bus=N632.2 Kv=2.4 kva=100.0 %r=0.003
~ wdg=2 bus=trip_node_632_B_4.1.0 Kv=0.12 kva=50.0 %r=0.006
~ wdg=3 bus=trip_node_632_B_4.0.2 Kv=0.12 kva=50.0 %r=0.006 Xhl=2.04  Xht=2.04  Xlt=1.36

New Transformer.xfmr_632_B_5 phases=1 windings=3
~ wdg=1 bus=N632.2 Kv=2.4 kva=100.0 %r=0.003
~ wdg=2 bus=trip_node_632_B_5.1.0 Kv=0.12 kva=50.0 %r=0.006
~ wdg=3 bus=trip_node_632_B_5.0.2 Kv=0.12 kva=50.0 %r=0.006 Xhl=2.04  Xht=2.04  Xlt=1.36

New Transformer.xfmr_632_C_1 phases=1 windings=3
~ wdg=1 bus=N632.3 Kv=2.4 kva=100.0 %r=0.003
~ wdg=2 bus=trip_node_632_C_1.1.0 Kv=0.12 kva=50.0 %r=0.006
~ wdg=3 bus=trip_node_632_C_1.0.2 Kv=0.12 kva=50.0 %r=0.006 Xhl=2.04  Xht=2.04  Xlt=1.36

New Transformer.xfmr_632_C_2 phases=1 windings=3
~ wdg=1 bus=N632.3 Kv=2.4 kva=100.0 %r=0.003
~ wdg=2 bus=trip_node_632_C_2.1.0 Kv=0.12 kva=50.0 %r=0.006
~ wdg=3 bus=trip_node_632_C_2.0.2 Kv=0.12 kva=50.0 %r=0.006 Xhl=2.04  Xht=2.04  Xlt=1.36

New Transformer.xfmr_632_C_3 phases=1 windings=3
~ wdg=1 bus=N632.3 Kv=2.4 kva=100.0 %r=0.003
~ wdg=2 bus=trip_node_632_C_3.1.0 Kv=0.12 kva=50.0 %r=0.006
~ wdg=3 bus=trip_node_632_C_3.0.2 Kv=0.12 kva=50.0 %r=0.006 Xhl=2.04  Xht=2.04  Xlt=1.36

New Transformer.xfmr_632_C_4 phases=1 windings=3
~ wdg=1 bus=N632.3 Kv=2.4 kva=100.0 %r=0.003
~ wdg=2 bus=trip_node_632_C_4.1.0 Kv=0.12 kva=50.0 %r=0.006
~ wdg=3 bus=trip_node_632_C_4.0.2 Kv=0.12 kva=50.0 %r=0.006 Xhl=2.04  Xht=2.04  Xlt=1.36

New Transformer.xfmr_632_C_5 phases=1 windings=3
~ wdg=1 bus=N632.3 Kv=2.4 kva=100.0 %r=0.003
~ wdg=2 bus=trip_node_632_C_5.1.0 Kv=0.12 kva=50.0 %r=0.006
~ wdg=3 bus=trip_node_632_C_5.0.2 Kv=0.12 kva=50.0 %r=0.006 Xhl=2.04  Xht=2.04  Xlt=1.36

New Transformer.xfmr_692_A_1 phases=1 windings=3
~ wdg=1 bus=N692.1 Kv=2.4 kva=100.0 %r=0.003
~ wdg=2 bus=trip_node_692_A_1.1.0 Kv=0.12 kva=50.0 %r=0.006
~ wdg=3 bus=trip_node_692_A_1.0.2 Kv=0.12 kva=50.0 %r=0.006 Xhl=2.04  Xht=2.04  Xlt=1.36

New Transformer.xfmr_692_A_2 phases=1 windings=3
~ wdg=1 bus=N692.1 Kv=2.4 kva=100.0 %r=0.003
~ wdg=2 bus=trip_node_692_A_2.1.0 Kv=0.12 kva=50.0 %r=0.006
~ wdg=3 bus=trip_node_692_A_2.0.2 Kv=0.12 kva=50.0 %r=0.006 Xhl=2.04  Xht=2.04  Xlt=1.36

New Transformer.xfmr_692_A_3 phases=1 windings=3
~ wdg=1 bus=N692.1 Kv=2.4 kva=100.0 %r=0.003
~ wdg=2 bus=trip_node_692_A_3.1.0 Kv=0.12 kva=50.0 %r=0.006
~ wdg=3 bus=trip_node_692_A_3.0.2 Kv=0.12 kva=50.0 %r=0.006 Xhl=2.04  Xht=2.04  Xlt=1.36

New Transformer.xfmr_692_A_4 phases=1 windings=3
~ wdg=1 bus=N692.1 Kv=2.4 kva=100.0 %r=0.003
~ wdg=2 bus=trip_node_692_A_4.1.0 Kv=0.12 kva=50.0 %r=0.006
~ wdg=3 bus=trip_node_692_A_4.0.2 Kv=0.12 kva=50.0 %r=0.006 Xhl=2.04  Xht=2.04  Xlt=1.36

New Transformer.xfmr_692_A_5 phases=1 windings=3
~ wdg=1 bus=N692.1 Kv=2.4 kva=100.0 %r=0.003
~ wdg=2 bus=trip_node_692_A_5.1.0 Kv=0.12 kva=50.0 %r=0.006
~ wdg=3 bus=trip_node_692_A_5.0.2 Kv=0.12 kva=50.0 %r=0.006 Xhl=2.04  Xht=2.04  Xlt=1.36

New Transformer.xfmr_692_B_1 phases=1 windings=3
~ wdg=1 bus=N692.2 Kv=2.4 kva=100.0 %r=0.003
~ wdg=2 bus=trip_node_692_B_1.1.0 Kv=0.12 kva=50.0 %r=0.006
~ wdg=3 bus=trip_node_692_B_1.0.2 Kv=0.12 kva=50.0 %r=0.006 Xhl=2.04  Xht=2.04  Xlt=1.36

New Transformer.xfmr_692_B_2 phases=1 windings=3
~ wdg=1 bus=N692.2 Kv=2.4 kva=100.0 %r=0.003
~ wdg=2 bus=trip_node_692_B_2.1.0 Kv=0.12 kva=50.0 %r=0.006
~ wdg=3 bus=trip_node_692_B_2.0.2 Kv=0.12 kva=50.0 %r=0.006 Xhl=2.04  Xht=2.04  Xlt=1.36

New Transformer.xfmr_692_B_3 phases=1 windings=3
~ wdg=1 bus=N692.2 Kv=2.4 kva=100.0 %r=0.003
~ wdg=2 bus=trip_node_692_B_3.1.0 Kv=0.12 kva=50.0 %r=0.006
~ wdg=3 bus=trip_node_692_B_3.0.2 Kv=0.12 kva=50.0 %r=0.006 Xhl=2.04  Xht=2.04  Xlt=1.36

New Transformer.xfmr_692_B_4 phases=1 windings=3
~ wdg=1 bus=N692.2 Kv=2.4 kva=100.0 %r=0.003
~ wdg=2 bus=trip_node_692_B_4.1.0 Kv=0.12 kva=50.0 %r=0.006
~ wdg=3 bus=trip_node_692_B_4.0.2 Kv=0.12 kva=50.0 %r=0.006 Xhl=2.04  Xht=2.04  Xlt=1.36

New Transformer.xfmr_692_B_5 phases=1 windings=3
~ wdg=1 bus=N692.2 Kv=2.4 kva=100.0 %r=0.003
~ wdg=2 bus=trip_node_692_B_5.1.0 Kv=0.12 kva=50.0 %r=0.006
~ wdg=3 bus=trip_node_692_B_5.0.2 Kv=0.12 kva=50.0 %r=0.006 Xhl=2.04  Xht=2.04  Xlt=1.36

New Transformer.xfmr_692_C_1 phases=1 windings=3
~ wdg=1 bus=N692.3 Kv=2.4 kva=100.0 %r=0.003
~ wdg=2 bus=trip_node_692_C_1.1.0 Kv=0.12 kva=50.0 %r=0.006
~ wdg=3 bus=trip_node_692_C_1.0.2 Kv=0.12 kva=50.0 %r=0.006 Xhl=2.04  Xht=2.04  Xlt=1.36

New Transformer.xfmr_692_C_2 phases=1 windings=3
~ wdg=1 bus=N692.3 Kv=2.4 kva=100.0 %r=0.003
~ wdg=2 bus=trip_node_692_C_2.1.0 Kv=0.12 kva=50.0 %r=0.006
~ wdg=3 bus=trip_node_692_C_2.0.2 Kv=0.12 kva=50.0 %r=0.006 Xhl=2.04  Xht=2.04  Xlt=1.36

New Transformer.xfmr_692_C_3 phases=1 windings=3
~ wdg=1 bus=N692.3 Kv=2.4 kva=100.0 %r=0.003
~ wdg=2 bus=trip_node_692_C_3.1.0 Kv=0.12 kva=50.0 %r=0.006
~ wdg=3 bus=trip_node_692_C_3.0.2 Kv=0.12 kva=50.0 %r=0.006 Xhl=2.04  Xht=2.04  Xlt=1.36

New Transformer.xfmr_692_C_4 phases=1 windings=3
~ wdg=1 bus=N692.3 Kv=2.4 kva=100.0 %r=0.003
~ wdg=2 bus=trip_node_692_C_4.1.0 Kv=0.12 kva=50.0 %r=0.006
~ wdg=3 bus=trip_node_692_C_4.0.2 Kv=0.12 kva=50.0 %r=0.006 Xhl=2.04  Xht=2.04  Xlt=1.36

New Transformer.xfmr_692_C_5 phases=1 windings=3
~ wdg=1 bus=N692.3 Kv=2.4 kva=100.0 %r=0.003
~ wdg=2 bus=trip_node_692_C_5.1.0 Kv=0.12 kva=50.0 %r=0.006
~ wdg=3 bus=trip_node_692_C_5.0.2 Kv=0.12 kva=50.0 %r=0.006 Xhl=2.04  Xht=2.04  Xlt=1.36

New Transformer.xfmr_675_A_1 phases=1 windings=3
~ wdg=1 bus=N675.1 Kv=2.4 kva=100.0 %r=0.003
~ wdg=2 bus=trip_node_675_A_1.1.0 Kv=0.12 kva=50.0 %r=0.006
~ wdg=3 bus=trip_node_675_A_1.0.2 Kv=0.12 kva=50.0 %r=0.006 Xhl=2.04  Xht=2.04  Xlt=1.36

New Transformer.xfmr_675_A_2 phases=1 windings=3
~ wdg=1 bus=N675.1 Kv=2.4 kva=100.0 %r=0.003
~ wdg=2 bus=trip_node_675_A_2.1.0 Kv=0.12 kva=50.0 %r=0.006
~ wdg=3 bus=trip_node_675_A_2.0.2 Kv=0.12 kva=50.0 %r=0.006 Xhl=2.04  Xht=2.04  Xlt=1.36

New Transformer.xfmr_675_A_3 phases=1 windings=3
~ wdg=1 bus=N675.1 Kv=2.4 kva=100.0 %r=0.003
~ wdg=2 bus=trip_node_675_A_3.1.0 Kv=0.12 kva=50.0 %r=0.006
~ wdg=3 bus=trip_node_675_A_3.0.2 Kv=0.12 kva=50.0 %r=0.006 Xhl=2.04  Xht=2.04  Xlt=1.36

New Transformer.xfmr_675_A_4 phases=1 windings=3
~ wdg=1 bus=N675.1 Kv=2.4 kva=100.0 %r=0.003
~ wdg=2 bus=trip_node_675_A_4.1.0 Kv=0.12 kva=50.0 %r=0.006
~ wdg=3 bus=trip_node_675_A_4.0.2 Kv=0.12 kva=50.0 %r=0.006 Xhl=2.04  Xht=2.04  Xlt=1.36

New Transformer.xfmr_675_A_5 phases=1 windings=3
~ wdg=1 bus=N675.1 Kv=2.4 kva=100.0 %r=0.003
~ wdg=2 bus=trip_node_675_A_5.1.0 Kv=0.12 kva=50.0 %r=0.006
~ wdg=3 bus=trip_node_675_A_5.0.2 Kv=0.12 kva=50.0 %r=0.006 Xhl=2.04  Xht=2.04  Xlt=1.36

New Transformer.xfmr_675_B_1 phases=1 windings=3
~ wdg=1 bus=N675.2 Kv=2.4 kva=100.0 %r=0.003
~ wdg=2 bus=trip_node_675_B_1.1.0 Kv=0.12 kva=50.0 %r=0.006
~ wdg=3 bus=trip_node_675_B_1.0.2 Kv=0.12 kva=50.0 %r=0.006 Xhl=2.04  Xht=2.04  Xlt=1.36

New Transformer.xfmr_675_B_2 phases=1 windings=3
~ wdg=1 bus=N675.2 Kv=2.4 kva=100.0 %r=0.003
~ wdg=2 bus=trip_node_675_B_2.1.0 Kv=0.12 kva=50.0 %r=0.006
~ wdg=3 bus=trip_node_675_B_2.0.2 Kv=0.12 kva=50.0 %r=0.006 Xhl=2.04  Xht=2.04  Xlt=1.36

New Transformer.xfmr_675_B_3 phases=1 windings=3
~ wdg=1 bus=N675.2 Kv=2.4 kva=100.0 %r=0.003
~ wdg=2 bus=trip_node_675_B_3.1.0 Kv=0.12 kva=50.0 %r=0.006
~ wdg=3 bus=trip_node_675_B_3.0.2 Kv=0.12 kva=50.0 %r=0.006 Xhl=2.04  Xht=2.04  Xlt=1.36

New Transformer.xfmr_675_B_4 phases=1 windings=3
~ wdg=1 bus=N675.2 Kv=2.4 kva=100.0 %r=0.003
~ wdg=2 bus=trip_node_675_B_4.1.0 Kv=0.12 kva=50.0 %r=0.006
~ wdg=3 bus=trip_node_675_B_4.0.2 Kv=0.12 kva=50.0 %r=0.006 Xhl=2.04  Xht=2.04  Xlt=1.36

New Transformer.xfmr_675_B_5 phases=1 windings=3
~ wdg=1 bus=N675.2 Kv=2.4 kva=100.0 %r=0.003
~ wdg=2 bus=trip_node_675_B_5.1.0 Kv=0.12 kva=50.0 %r=0.006
~ wdg=3 bus=trip_node_675_B_5.0.2 Kv=0.12 kva=50.0 %r=0.006 Xhl=2.04  Xht=2.04  Xlt=1.36

New Transformer.xfmr_675_C_1 phases=1 windings=3
~ wdg=1 bus=N675.3 Kv=2.4 kva=100.0 %r=0.003
~ wdg=2 bus=trip_node_675_C_1.1.0 Kv=0.12 kva=50.0 %r=0.006
~ wdg=3 bus=trip_node_675_C_1.0.2 Kv=0.12 kva=50.0 %r=0.006 Xhl=2.04  Xht=2.04  Xlt=1.36

New Transformer.xfmr_675_C_2 phases=1 windings=3
~ wdg=1 bus=N675.3 Kv=2.4 kva=100.0 %r=0.003
~ wdg=2 bus=trip_node_675_C_2.1.0 Kv=0.12 kva=50.0 %r=0.006
~ wdg=3 bus=trip_node_675_C_2.0.2 Kv=0.12 kva=50.0 %r=0.006 Xhl=2.04  Xht=2.04  Xlt=1.36

New Transformer.xfmr_675_C_3 phases=1 windings=3
~ wdg=1 bus=N675.3 Kv=2.4 kva=100.0 %r=0.003
~ wdg=2 bus=trip_node_675_C_3.1.0 Kv=0.12 kva=50.0 %r=0.006
~ wdg=3 bus=trip_node_675_C_3.0.2 Kv=0.12 kva=50.0 %r=0.006 Xhl=2.04  Xht=2.04  Xlt=1.36

New Transformer.xfmr_675_C_4 phases=1 windings=3
~ wdg=1 bus=N675.3 Kv=2.4 kva=100.0 %r=0.003
~ wdg=2 bus=trip_node_675_C_4.1.0 Kv=0.12 kva=50.0 %r=0.006
~ wdg=3 bus=trip_node_675_C_4.0.2 Kv=0.12 kva=50.0 %r=0.006 Xhl=2.04  Xht=2.04  Xlt=1.36

New Transformer.xfmr_675_C_5 phases=1 windings=3
~ wdg=1 bus=N675.3 Kv=2.4 kva=100.0 %r=0.003
~ wdg=2 bus=trip_node_675_C_5.1.0 Kv=0.12 kva=50.0 %r=0.006
~ wdg=3 bus=trip_node_675_C_5.0.2 Kv=0.12 kva=50.0 %r=0.006 Xhl=2.04  Xht=2.04  Xlt=1.36

New Transformer.xfmr_671_A_1 phases=1 windings=3
~ wdg=1 bus=N671.1 Kv=2.4 kva=100.0 %r=0.003
~ wdg=2 bus=trip_node_671_A_1.1.0 Kv=0.12 kva=50.0 %r=0.006
~ wdg=3 bus=trip_node_671_A_1.0.2 Kv=0.12 kva=50.0 %r=0.006 Xhl=2.04  Xht=2.04  Xlt=1.36

New Transformer.xfmr_671_A_2 phases=1 windings=3
~ wdg=1 bus=N671.1 Kv=2.4 kva=100.0 %r=0.003
~ wdg=2 bus=trip_node_671_A_2.1.0 Kv=0.12 kva=50.0 %r=0.006
~ wdg=3 bus=trip_node_671_A_2.0.2 Kv=0.12 kva=50.0 %r=0.006 Xhl=2.04  Xht=2.04  Xlt=1.36

New Transformer.xfmr_671_A_3 phases=1 windings=3
~ wdg=1 bus=N671.1 Kv=2.4 kva=100.0 %r=0.003
~ wdg=2 bus=trip_node_671_A_3.1.0 Kv=0.12 kva=50.0 %r=0.006
~ wdg=3 bus=trip_node_671_A_3.0.2 Kv=0.12 kva=50.0 %r=0.006 Xhl=2.04  Xht=2.04  Xlt=1.36

New Transformer.xfmr_671_A_4 phases=1 windings=3
~ wdg=1 bus=N671.1 Kv=2.4 kva=100.0 %r=0.003
~ wdg=2 bus=trip_node_671_A_4.1.0 Kv=0.12 kva=50.0 %r=0.006
~ wdg=3 bus=trip_node_671_A_4.0.2 Kv=0.12 kva=50.0 %r=0.006 Xhl=2.04  Xht=2.04  Xlt=1.36

New Transformer.xfmr_671_A_5 phases=1 windings=3
~ wdg=1 bus=N671.1 Kv=2.4 kva=100.0 %r=0.003
~ wdg=2 bus=trip_node_671_A_5.1.0 Kv=0.12 kva=50.0 %r=0.006
~ wdg=3 bus=trip_node_671_A_5.0.2 Kv=0.12 kva=50.0 %r=0.006 Xhl=2.04  Xht=2.04  Xlt=1.36

New Transformer.xfmr_671_B_1 phases=1 windings=3
~ wdg=1 bus=N671.2 Kv=2.4 kva=100.0 %r=0.003
~ wdg=2 bus=trip_node_671_B_1.1.0 Kv=0.12 kva=50.0 %r=0.006
~ wdg=3 bus=trip_node_671_B_1.0.2 Kv=0.12 kva=50.0 %r=0.006 Xhl=2.04  Xht=2.04  Xlt=1.36

New Transformer.xfmr_671_B_2 phases=1 windings=3
~ wdg=1 bus=N671.2 Kv=2.4 kva=100.0 %r=0.003
~ wdg=2 bus=trip_node_671_B_2.1.0 Kv=0.12 kva=50.0 %r=0.006
~ wdg=3 bus=trip_node_671_B_2.0.2 Kv=0.12 kva=50.0 %r=0.006 Xhl=2.04  Xht=2.04  Xlt=1.36

New Transformer.xfmr_671_B_3 phases=1 windings=3
~ wdg=1 bus=N671.2 Kv=2.4 kva=100.0 %r=0.003
~ wdg=2 bus=trip_node_671_B_3.1.0 Kv=0.12 kva=50.0 %r=0.006
~ wdg=3 bus=trip_node_671_B_3.0.2 Kv=0.12 kva=50.0 %r=0.006 Xhl=2.04  Xht=2.04  Xlt=1.36

New Transformer.xfmr_671_B_4 phases=1 windings=3
~ wdg=1 bus=N671.2 Kv=2.4 kva=100.0 %r=0.003
~ wdg=2 bus=trip_node_671_B_4.1.0 Kv=0.12 kva=50.0 %r=0.006
~ wdg=3 bus=trip_node_671_B_4.0.2 Kv=0.12 kva=50.0 %r=0.006 Xhl=2.04  Xht=2.04  Xlt=1.36

New Transformer.xfmr_671_B_5 phases=1 windings=3
~ wdg=1 bus=N671.2 Kv=2.4 kva=100.0 %r=0.003
~ wdg=2 bus=trip_node_671_B_5.1.0 Kv=0.12 kva=50.0 %r=0.006
~ wdg=3 bus=trip_node_671_B_5.0.2 Kv=0.12 kva=50.0 %r=0.006 Xhl=2.04  Xht=2.04  Xlt=1.36

New Transformer.xfmr_671_C_1 phases=1 windings=3
~ wdg=1 bus=N671.3 Kv=2.4 kva=100.0 %r=0.003
~ wdg=2 bus=trip_node_671_C_1.1.0 Kv=0.12 kva=50.0 %r=0.006
~ wdg=3 bus=trip_node_671_C_1.0.2 Kv=0.12 kva=50.0 %r=0.006 Xhl=2.04  Xht=2.04  Xlt=1.36

New Transformer.xfmr_671_C_2 phases=1 windings=3
~ wdg=1 bus=N671.3 Kv=2.4 kva=100.0 %r=0.003
~ wdg=2 bus=trip_node_671_C_2.1.0 Kv=0.12 kva=50.0 %r=0.006
~ wdg=3 bus=trip_node_671_C_2.0.2 Kv=0.12 kva=50.0 %r=0.006 Xhl=2.04  Xht=2.04  Xlt=1.36

New Transformer.xfmr_671_C_3 phases=1 windings=3
~ wdg=1 bus=N671.3 Kv=2.4 kva=100.0 %r=0.003
~ wdg=2 bus=trip_node_671_C_3.1.0 Kv=0.12 kva=50.0 %r=0.006
~ wdg=3 bus=trip_node_671_C_3.0.2 Kv=0.12 kva=50.0 %r=0.006 Xhl=2.04  Xht=2.04  Xlt=1.36

New Transformer.xfmr_671_C_4 phases=1 windings=3
~ wdg=1 bus=N671.3 Kv=2.4 kva=100.0 %r=0.003
~ wdg=2 bus=trip_node_671_C_4.1.0 Kv=0.12 kva=50.0 %r=0.006
~ wdg=3 bus=trip_node_671_C_4.0.2 Kv=0.12 kva=50.0 %r=0.006 Xhl=2.04  Xht=2.04  Xlt=1.36

New Transformer.xfmr_671_C_5 phases=1 windings=3
~ wdg=1 bus=N671.3 Kv=2.4 kva=100.0 %r=0.003
~ wdg=2 bus=trip_node_671_C_5.1.0 Kv=0.12 kva=50.0 %r=0.006
~ wdg=3 bus=trip_node_671_C_5.0.2 Kv=0.12 kva=50.0 %r=0.006 Xhl=2.04  Xht=2.04  Xlt=1.36

New Transformer.xfmr_680_A_1 phases=1 windings=3
~ wdg=1 bus=N680.1 Kv=2.4 kva=100.0 %r=0.003
~ wdg=2 bus=trip_node_680_A_1.1.0 Kv=0.12 kva=50.0 %r=0.006
~ wdg=3 bus=trip_node_680_A_1.0.2 Kv=0.12 kva=50.0 %r=0.006 Xhl=2.04  Xht=2.04  Xlt=1.36

New Transformer.xfmr_680_A_2 phases=1 windings=3
~ wdg=1 bus=N680.1 Kv=2.4 kva=100.0 %r=0.003
~ wdg=2 bus=trip_node_680_A_2.1.0 Kv=0.12 kva=50.0 %r=0.006
~ wdg=3 bus=trip_node_680_A_2.0.2 Kv=0.12 kva=50.0 %r=0.006 Xhl=2.04  Xht=2.04  Xlt=1.36

New Transformer.xfmr_680_A_3 phases=1 windings=3
~ wdg=1 bus=N680.1 Kv=2.4 kva=100.0 %r=0.003